@<TRIPOS>MOLECULE
ZINC000055669662
  28   29    0    0    0
SMALL
USER_CHARGES
NO_NAME
@<TRIPOS>ATOM
    1 O1        0.0021    -0.0041     0.0020 O.2    1 <0>      -0.4000
    2 C2       -0.0143     1.2034     0.0087 C.2    1 <0>       0.3400
    3 C3       -1.3061     2.0150     0.0319 C.3    1 <0>      -0.1400
    4 C4       -1.2420     2.9144     1.2773 C.3    1 <0>      -0.1500
    5 C5        0.0409     3.7457     1.2310 C.3    1 <0>       0.0400
    6 N6        0.7999     3.4535     0.0088 N.3    1 <0>      -0.5100
    7 C7        0.0055     3.7587    -1.1875 C.3    1 <0>       0.0400
    8 C8       -1.2783     2.9277    -1.2052 C.3    1 <0>      -0.1500
    9 C9        1.2524     2.0481     0.0011 C.3    1 <0>       0.0700
   10 C10       2.0962     1.7588     1.2442 C.3    1 <0>       0.1000
   11 O11       2.5259     0.3962     1.2217 O.3    1 <0>      -0.5400
   12 C12       2.0608     1.7611    -1.2658 C.3    1 <0>       0.1000
   13 O13       2.4909     0.3984    -1.2579 O.3    1 <0>      -0.5400
   14 H14      -2.1856     1.3711     0.0364 H      1 <0>       0.1100
   15 H15      -2.1061     3.5787     1.2917 H      1 <0>       0.0800
   16 H16      -1.2426     2.2951     2.1743 H      1 <0>       0.0700
   17 H17      -0.2159     4.8048     1.2503 H      1 <0>       0.0900
   18 H18       0.6543     3.5090     2.1004 H      1 <0>       0.0800
   19 H19      -0.2517     4.8179    -1.1879 H      1 <0>       0.0900
   20 H20       0.5932     3.5316    -2.0770 H      1 <0>       0.0800
   21 H21      -1.3051     2.3180    -2.1084 H      1 <0>       0.0700
   22 H22      -2.1423     3.5919    -1.1873 H      1 <0>       0.0800
   23 H23       2.9670     2.4143     1.2528 H      1 <0>       0.0600
   24 H24       1.4987     1.9367     2.1383 H      1 <0>       0.0500
   25 H25       3.0669     0.1418     1.9817 H      1 <0>       0.3800
   26 H26       1.4384     1.9406    -2.1424 H      1 <0>       0.0500
   27 H27       2.9311     2.4167    -1.2978 H      1 <0>       0.0600
   28 H28       3.0104     0.1455    -2.0334 H      1 <0>       0.3700
@<TRIPOS>BOND
   1    1    2 2
   2    2    9 1
   3    2    3 1
   4    3    8 1
   5    3    4 1
   6    3   14 1
   7    4    5 1
   8    4   15 1
   9    4   16 1
  10    5    6 1
  11    5   17 1
  12    5   18 1
  13    6    7 1
  14    6    9 1
  15    7    8 1
  16    7   19 1
  17    7   20 1
  18    8   21 1
  19    8   22 1
  20    9   10 1
  21    9   12 1
  22   10   11 1
  23   10   23 1
  24   10   24 1
  25   11   25 1
  26   12   13 1
  27   12   26 1
  28   12   27 1
  29   13   28 1
