# Name:		ZINC000055669662
# Created and modified by SHAFTS on Sun Mar  7 15:22:28 2021

# 

@<TRIPOS>MOLECULE
ZINC000055669662
   28    29     0
SMALL
USER_CHARGE


@<TRIPOS>ATOM
      1 O1          0.0021   -0.0041    0.0020 O.2       1 <1>        -0.4414
      2 C2         -0.0143    1.2034    0.0087 C.2       1 <1>         0.0542
      3 C3         -1.3061    2.0150    0.0319 C.3       1 <1>         0.0116
      4 C4         -1.2420    2.9144    1.2773 C.3       1 <1>        -0.0701
      5 C5          0.0409    3.7457    1.2310 C.3       1 <1>        -0.1782
      6 N6          0.7999    3.4535    0.0088 N.3       1 <1>         0.3561
      7 C7          0.0055    3.7587   -1.1875 C.3       1 <1>        -0.1782
      8 C8         -1.2783    2.9277   -1.2052 C.3       1 <1>        -0.0701
      9 C9          1.2524    2.0481    0.0011 C.3       1 <1>        -0.0524
     10 C10         2.0962    1.7588    1.2442 C.3       1 <1>        -0.0140
     11 O11         2.5259    0.3962    1.2217 O.3       1 <1>        -0.4773
     12 C12         2.0608    1.7611   -1.2658 C.3       1 <1>        -0.0143
     13 O13         2.4909    0.3984   -1.2579 O.3       1 <1>        -0.4786
     14 H14        -2.1856    1.3711    0.0364 H         1 <1>         0.0928
     15 H15        -2.1061    3.5787    1.2917 H         1 <1>         0.0515
     16 H16        -1.2426    2.2951    2.1743 H         1 <1>         0.0444
     17 H17        -0.2159    4.8048    1.2503 H         1 <1>         0.0576
     18 H18         0.6543    3.5090    2.1004 H         1 <1>         0.0504
     19 H19        -0.2517    4.8179   -1.1879 H         1 <1>         0.0576
     20 H20         0.5932    3.5316   -2.0770 H         1 <1>         0.0504
     21 H21        -1.3051    2.3180   -2.1084 H         1 <1>         0.0444
     22 H22        -2.1423    3.5919   -1.1873 H         1 <1>         0.0515
     23 H23         2.9670    2.4143    1.2528 H         1 <1>         0.0982
     24 H24         1.4987    1.9367    2.1383 H         1 <1>         0.0910
     25 H25         3.0669    0.1418    1.9817 H         1 <1>         0.3308
     26 H26         1.4384    1.9406   -2.1424 H         1 <1>         0.0910
     27 H27         2.9311    2.4167   -1.2978 H         1 <1>         0.0982
     28 H28         3.0104    0.1455   -2.0334 H         1 <1>         0.3225
@<TRIPOS>BOND
     1    1    2 2
     2    2    9 1
     3    2    3 1
     4    3    8 1
     5    3    4 1
     6    3   14 1
     7    4    5 1
     8    4   15 1
     9    4   16 1
    10    5    6 1
    11    5   17 1
    12    5   18 1
    13    6    7 1
    14    6    9 1
    15    7    8 1
    16    7   19 1
    17    7   20 1
    18    8   21 1
    19    8   22 1
    20    9   10 1
    21    9   12 1
    22   10   11 1
    23   10   23 1
    24   10   24 1
    25   11   25 1
    26   12   13 1
    27   12   26 1
    28   12   27 1
    29   13   28 1
@<TRIPOS>Similarity
2.0000
@<TRIPOS>ShapeSim
1.0000
@<TRIPOS>PharmSim
1.0000
# END
# Name:		ZINC000068199944
# Created and modified by SHAFTS on Sun Mar  7 15:22:28 2021

# 

@<TRIPOS>MOLECULE
ZINC000068199944
   31    32     0
SMALL
USER_CHARGE


@<TRIPOS>ATOM
      1 C1          3.2544    0.0471   -2.4347 C.3       1 <1>         0.0041
      2 O2          2.4931    0.4135   -1.2821 O.3       1 <1>        -0.4551
      3 C3          2.0578    1.7746   -1.2817 C.3       1 <1>         0.0121
      4 C4          1.2570    2.0536   -0.0083 C.3       1 <1>        -0.0474
      5 C5          2.1129    1.7636    1.2263 C.3       1 <1>        -0.0140
      6 O6          2.5141    0.3921    1.2163 O.3       1 <1>        -0.4773
      7 C7         -0.0062    1.2039    0.0141 C.2       1 <1>         0.0542
      8 O8          0.0147   -0.0036    0.0083 O.2       1 <1>        -0.4414
      9 C9         -1.3010    2.0104    0.0450 C.3       1 <1>         0.0116
     10 C10        -1.2326    2.9108    1.2895 C.3       1 <1>        -0.0701
     11 C11         0.0467    3.7470    1.2347 C.3       1 <1>        -0.1783
     12 N12         0.7991    3.4571    0.0080 N.3       1 <1>         0.3562
     13 C13        -0.0039    3.7585   -1.1836 C.3       1 <1>        -0.1783
     14 C14        -1.2846    2.9225   -1.1927 C.3       1 <1>        -0.0701
     15 H15         2.6502    0.1918   -3.3303 H         1 <1>         0.0737
     16 H16         4.1468    0.6702   -2.4939 H         1 <1>         0.0737
     17 H17         3.5469   -1.0002   -2.3589 H         1 <1>         0.1098
     18 H18         2.9253    2.4335   -1.3170 H         1 <1>         0.1101
     19 H19         1.4287    1.9551   -2.1534 H         1 <1>         0.0956
     20 H20         2.9970    2.4009    1.2134 H         1 <1>         0.0982
     21 H21         1.5323    1.9657    2.1265 H         1 <1>         0.0910
     22 H22         3.0611    0.1368    1.9718 H         1 <1>         0.3308
     23 H23        -2.1779    1.3631    0.0554 H         1 <1>         0.0928
     24 H24        -2.0992    3.5716    1.3090 H         1 <1>         0.0515
     25 H25        -1.2251    2.2919    2.1868 H         1 <1>         0.0444
     26 H26        -0.2142    4.8051    1.2551 H         1 <1>         0.0576
     27 H27         0.6664    3.5133    2.1005 H         1 <1>         0.0504
     28 H28        -0.2652    4.8168   -1.1829 H         1 <1>         0.0576
     29 H29         0.5791    3.5332   -2.0766 H         1 <1>         0.0504
     30 H30        -1.3147    2.3123   -2.0953 H         1 <1>         0.0444
     31 H31        -2.1510    3.5834   -1.1697 H         1 <1>         0.0515
@<TRIPOS>BOND
     1    1    2 1
     2    1   15 1
     3    1   16 1
     4    1   17 1
     5    2    3 1
     6    3    4 1
     7    3   18 1
     8    3   19 1
     9    4   12 1
    10    4    5 1
    11    4    7 1
    12    5    6 1
    13    5   20 1
    14    5   21 1
    15    6   22 1
    16    7    8 2
    17    7    9 1
    18    9   14 1
    19    9   10 1
    20    9   23 1
    21   10   11 1
    22   10   24 1
    23   10   25 1
    24   11   12 1
    25   11   26 1
    26   11   27 1
    27   12   13 1
    28   13   14 1
    29   13   28 1
    30   13   29 1
    31   14   30 1
    32   14   31 1
@<TRIPOS>Similarity
1.8899
@<TRIPOS>ShapeSim
0.9810
@<TRIPOS>PharmSim
0.9089
# END
