@<TRIPOS>MOLECULE
ZINC000063539695
36    38    1     0     0
SMALL
USER_CHARGES
@<TRIPOS>ATOM
1      C1     -0.0284    1.4415   -0.2016 C.3      1 ZINC000063539695   -0.1700
2      C2     -0.0715   -0.0878   -0.1803 C.3      1 ZINC000063539695    0.1100
3      N3     -1.4649   -0.5362   -0.1201 N.am     1 ZINC000063539695   -0.5600
4      C4     -2.0526   -0.7192    1.0827 C.2      1 ZINC000063539695    0.5800
5      O5     -1.4408   -0.5164    2.1141 O.2      1 ZINC000063539695   -0.4900
6      C6     -3.4526   -1.1700    1.1108 C.ar     1 ZINC000063539695   -0.3200
7      C7     -4.1292   -1.3811    2.3085 C.ar     1 ZINC000063539695    0.1100
8      C8     -5.4582   -1.8091    2.2427 C.ar     1 ZINC000063539695   -0.3100
9      C9     -6.2276   -2.0494    3.4755 C.2      1 ZINC000063539695    0.5900
10     N10    -5.6172   -1.9804    4.6751 N.am     1 ZINC000063539695   -0.8400
11     O11    -7.4138   -2.3102    3.4109 O.2      1 ZINC000063539695   -0.5500
12     C12    -6.0514   -2.0068    0.9797 C.ar     1 ZINC000063539695    0.5200
13     N13    -7.3613   -2.4287    0.9051 N.pl3    1 ZINC000063539695   -0.8000
14     N14    -5.3717   -1.7937   -0.1366 N.ar     1 ZINC000063539695   -0.5700
15     C15    -4.1133   -1.3892   -0.1167 C.ar     1 ZINC000063539695    0.4900
16     N16    -3.4149   -1.1693   -1.2880 N.am     1 ZINC000063539695   -0.5000
17     C17    -4.0767   -1.3882   -2.5765 C.3      1 ZINC000063539695    0.0700
18     C18    -5.4726   -0.7904   -2.7642 C.3      1 ZINC000063539695   -0.1400
19     C19    -4.2727   -0.1731   -3.4854 C.3      1 ZINC000063539695   -0.1600
20     C20    -2.1381   -0.7532   -1.2607 C.2      1 ZINC000063539695    0.7100
21     O21    -1.5638   -0.5730   -2.3169 O.2      1 ZINC000063539695   -0.5200
22     H22     1.0083    1.7751   -0.2463 H        1 ZINC000063539695    0.0800
23     H23    -0.5661    1.8079   -1.0760 H        1 ZINC000063539695    0.0600
24     H24    -0.4967    1.8308    0.7024 H        1 ZINC000063539695    0.0600
25     H25     0.3968   -0.4771   -1.0843 H        1 ZINC000063539695    0.1000
26     H26     0.4662   -0.4543    0.6942 H        1 ZINC000063539695    0.1000
27     H27    -3.6425   -1.2198    3.2590 H        1 ZINC000063539695    0.1600
28     H28    -4.6712   -1.7724    4.7267 H        1 ZINC000063539695    0.4000
29     H29    -6.1240   -2.1386    5.4870 H        1 ZINC000063539695    0.4100
30     H30    -7.8977   -2.4902    1.7110 H        1 ZINC000063539695    0.4300
31     H31    -7.7469   -2.6642    0.0467 H        1 ZINC000063539695    0.4100
32     H32    -3.8707   -2.3460   -3.0542 H        1 ZINC000063539695    0.1300
33     H33    -6.1852   -1.3551   -3.3654 H        1 ZINC000063539695    0.1100
34     H34    -5.8984   -0.2343   -1.9290 H        1 ZINC000063539695    0.1000
35     H35    -3.9092    0.7891   -3.1247 H        1 ZINC000063539695    0.1000
36     H36    -4.1959   -0.3316   -4.5611 H        1 ZINC000063539695    0.1100
@<TRIPOS>BOND
1     1     2     1
2     1     22    1
3     1     23    1
4     1     24    1
5     2     3     1
6     2     25    1
7     2     26    1
8     3     20    am
9     3     4     am
10    4     5     2
11    4     6     1
12    6     15    ar
13    6     7     ar
14    7     8     ar
15    7     27    1
16    8     9     1
17    8     12    ar
18    9     10    am
19    9     11    2
20    10    28    1
21    10    29    1
22    12    13    1
23    12    14    ar
24    13    30    1
25    13    31    1
26    14    15    ar
27    15    16    1
28    16    17    1
29    16    20    am
30    17    19    1
31    17    18    1
32    17    32    1
33    18    19    1
34    18    33    1
35    18    34    1
36    19    35    1
37    19    36    1
38    20    21    2
@<TRIPOS>SUBSTRUCTURE
1   ZINC000063539695 1     RESIDUE    1   A     ZIN   1
