@<TRIPOS>MOLECULE
ZINC000022446654
92    96    1     0     0
SMALL
USER_CHARGES
@<TRIPOS>ATOM
1      C1      1.4728   -0.8464   -0.4073 C.3      1 ZINC000022446654   -0.1600
2      C2      1.4599   -2.2581   -0.9969 C.3      1 ZINC000022446654    0.1700
3      C3      2.1645   -3.2184   -0.0364 C.3      1 ZINC000022446654   -0.1600
4      C4      0.0132   -2.7121   -1.2019 C.3      1 ZINC000022446654   -0.1600
5      N5      2.1582   -2.2559   -2.2848 N.am     1 ZINC000022446654   -0.7300
6      C6      3.4532   -1.8882   -2.3486 C.2      1 ZINC000022446654    0.5200
7      O7      4.0406   -1.5592   -1.3398 O.2      1 ZINC000022446654   -0.5100
8      C8      4.1715   -1.8859   -3.6734 C.3      1 ZINC000022446654    0.0700
9      H9      3.4630   -1.6615   -4.4707 H        1 ZINC000022446654    0.0700
10     C10     4.7964   -3.2614   -3.9178 C.3      1 ZINC000022446654    0.0700
11     N11     5.5289   -3.2445   -5.1917 N.3      1 ZINC000022446654   -0.5300
12     C12     6.0809   -4.5706   -5.4992 C.3      1 ZINC000022446654    0.1000
13     C13     7.0223   -4.4634   -6.6711 C.ar     1 ZINC000022446654   -0.1400
14     C14     6.5508   -4.6124   -7.9662 C.ar     1 ZINC000022446654   -0.0600
15     C15     7.4532   -4.5053   -9.0136 C.ar     1 ZINC000022446654   -0.1700
16     C16     8.7831   -4.2553   -8.7337 C.ar     1 ZINC000022446654    0.1000
17     N17     9.1965   -4.1191   -7.4887 N.ar     1 ZINC000022446654   -0.4800
18     C18     8.3659   -4.2095   -6.4686 C.ar     1 ZINC000022446654    0.1100
19     C19     6.5870   -2.2248   -5.1740 C.3      1 ZINC000022446654    0.0500
20     C20     5.9620   -0.8492   -4.9296 C.3      1 ZINC000022446654    0.0600
21     N21     5.2292   -0.8658   -3.6559 N.3      1 ZINC000022446654   -0.5000
22     C22     4.6773    0.4605   -3.3487 C.3      1 ZINC000022446654    0.0200
23     C23     5.8212    1.4338   -3.0571 C.3      1 ZINC000022446654    0.1200
24     H24     6.4703    1.5036   -3.9299 H        1 ZINC000022446654    0.1000
25     O25     6.5755    0.9612   -1.9392 O.3      1 ZINC000022446654   -0.5400
26     C26     5.2464    2.8152   -2.7371 C.3      1 ZINC000022446654   -0.1400
27     C27     6.3904    3.8169   -2.5681 C.3      1 ZINC000022446654   -0.0900
28     H28     7.0860    3.4502   -1.8133 H        1 ZINC000022446654    0.1000
29     C29     7.1243    3.9825   -3.9004 C.3      1 ZINC000022446654   -0.0700
30     C30     8.3383    4.8528   -3.7004 C.ar     1 ZINC000022446654   -0.0900
31     C31     8.2700    6.2069   -3.9699 C.ar     1 ZINC000022446654   -0.1000
32     C32     9.3835    7.0052   -3.7864 C.ar     1 ZINC000022446654   -0.1200
33     C33    10.5652    6.4494   -3.3330 C.ar     1 ZINC000022446654   -0.1200
34     C34    10.6333    5.0955   -3.0626 C.ar     1 ZINC000022446654   -0.1200
35     C35     9.5185    4.2980   -3.2420 C.ar     1 ZINC000022446654   -0.1100
36     C36     5.8327    5.1476   -2.1330 C.2      1 ZINC000022446654    0.5300
37     O37     5.4273    5.9353   -2.9613 O.2      1 ZINC000022446654   -0.5400
38     N38     5.7845    5.4623   -0.8234 N.am     1 ZINC000022446654   -0.7000
39     C39     5.1405    6.7055   -0.3921 C.3      1 ZINC000022446654    0.2000
40     H40     4.3035    6.9445   -1.0481 H        1 ZINC000022446654    0.1000
41     C41     6.1421    7.8404   -0.3837 C.ar     1 ZINC000022446654   -0.1100
42     C42     6.6512    8.5954   -1.4266 C.ar     1 ZINC000022446654   -0.0800
43     C43     7.5712    9.5952   -1.1765 C.ar     1 ZINC000022446654   -0.1200
44     C44     7.9849    9.8436    0.1186 C.ar     1 ZINC000022446654   -0.1100
45     C45     7.4777    9.0916    1.1605 C.ar     1 ZINC000022446654   -0.1100
46     C46     6.5560    8.0888    0.9119 C.ar     1 ZINC000022446654   -0.0900
47     C47     5.8603    7.1381    1.8623 C.3      1 ZINC000022446654   -0.1200
48     C48     4.6572    6.5796    1.0684 C.3      1 ZINC000022446654    0.1000
49     H49     3.7671    7.1859    1.2363 H        1 ZINC000022446654    0.0800
50     O50     4.4115    5.2144    1.4120 O.3      1 ZINC000022446654   -0.5500
51     H51     2.5034   -0.5230   -0.2613 H        1 ZINC000022446654    0.0800
52     H52     0.9708   -0.1623   -1.0915 H        1 ZINC000022446654    0.0500
53     H53     0.9533   -0.8480    0.5509 H        1 ZINC000022446654    0.0600
54     H54     1.6450   -3.2200    0.9218 H        1 ZINC000022446654    0.0600
55     H55     2.1553   -4.2242   -0.4565 H        1 ZINC000022446654    0.0500
56     H56     3.1951   -2.8950    0.1096 H        1 ZINC000022446654    0.0800
57     H57    -0.4887   -2.0280   -1.8861 H        1 ZINC000022446654    0.0600
58     H58     0.0041   -3.7178   -1.6219 H        1 ZINC000022446654    0.0600
59     H59    -0.5063   -2.7137   -0.2436 H        1 ZINC000022446654    0.0700
60     H60     1.6884   -2.5190   -3.0916 H        1 ZINC000022446654    0.4000
61     H61     5.4843   -3.4978   -3.1059 H        1 ZINC000022446654    0.0600
62     H62     4.0106   -4.0156   -3.9602 H        1 ZINC000022446654    0.0800
63     H63     6.6220   -4.9490   -4.6320 H        1 ZINC000022446654    0.0500
64     H64     5.2686   -5.2538   -5.7471 H        1 ZINC000022446654    0.0900
65     H65     5.5055   -4.8077   -8.1549 H        1 ZINC000022446654    0.1400
66     H66     7.1210   -4.6162  -10.0352 H        1 ZINC000022446654    0.1400
67     H67     9.4923   -4.1709   -9.5438 H        1 ZINC000022446654    0.1600
68     H68     8.7412   -4.0923   -5.4627 H        1 ZINC000022446654    0.1500
69     H69     7.2951   -2.4493   -4.3764 H        1 ZINC000022446654    0.0500
70     H70     7.1065   -2.2231   -6.1322 H        1 ZINC000022446654    0.0800
71     H71     6.7479   -0.0951   -4.8872 H        1 ZINC000022446654    0.0900
72     H72     5.2742   -0.6128   -5.7414 H        1 ZINC000022446654    0.0400
73     H73     4.1020    0.8210   -4.2014 H        1 ZINC000022446654    0.0400
74     H74     4.0282    0.3906   -2.4758 H        1 ZINC000022446654    0.0900
75     H75     6.0603    0.8744   -1.1255 H        1 ZINC000022446654    0.3800
76     H76     4.5990    3.1371   -3.5528 H        1 ZINC000022446654    0.0800
77     H77     4.6692    2.7636   -1.8139 H        1 ZINC000022446654    0.0700
78     H78     7.4349    3.0046   -4.2681 H        1 ZINC000022446654    0.0800
79     H79     6.4585    4.4490   -4.6264 H        1 ZINC000022446654    0.0800
80     H80     7.3467    6.6411   -4.3242 H        1 ZINC000022446654    0.1300
81     H81     9.3304    8.0630   -3.9977 H        1 ZINC000022446654    0.1200
82     H82    11.4354    7.0730   -3.1903 H        1 ZINC000022446654    0.1200
83     H83    11.5566    4.6612   -2.7086 H        1 ZINC000022446654    0.1200
84     H84     9.5716    3.2402   -3.0307 H        1 ZINC000022446654    0.1200
85     H85     6.1761    4.8657   -0.1665 H        1 ZINC000022446654    0.4100
86     H86     6.3284    8.4019   -2.4389 H        1 ZINC000022446654    0.1200
87     H87     7.9670   10.1819   -1.9923 H        1 ZINC000022446654    0.1200
88     H88     8.7044   10.6246    0.3158 H        1 ZINC000022446654    0.1200
89     H89     7.8015    9.2862    2.1723 H        1 ZINC000022446654    0.1200
90     H90     6.5331    6.3296    2.1483 H        1 ZINC000022446654    0.0900
91     H91     5.5137    7.6733    2.7463 H        1 ZINC000022446654    0.0800
92     H92     4.1883    5.0772    2.3429 H        1 ZINC000022446654    0.3900
@<TRIPOS>BOND
1     1     2     1
2     1     51    1
3     1     52    1
4     1     53    1
5     2     3     1
6     2     4     1
7     2     5     1
8     3     54    1
9     3     55    1
10    3     56    1
11    4     57    1
12    4     58    1
13    4     59    1
14    5     6     am
15    5     60    1
16    6     7     2
17    6     8     1
18    8     9     1
19    8     21    1
20    8     10    1
21    10    11    1
22    10    61    1
23    10    62    1
24    11    12    1
25    11    19    1
26    12    13    1
27    12    63    1
28    12    64    1
29    13    18    ar
30    13    14    ar
31    14    15    ar
32    14    65    1
33    15    16    ar
34    15    66    1
35    16    17    ar
36    16    67    1
37    17    18    ar
38    18    68    1
39    19    20    1
40    19    69    1
41    19    70    1
42    20    21    1
43    20    71    1
44    20    72    1
45    21    22    1
46    22    23    1
47    22    73    1
48    22    74    1
49    23    24    1
50    23    25    1
51    23    26    1
52    25    75    1
53    26    27    1
54    26    76    1
55    26    77    1
56    27    28    1
57    27    29    1
58    27    36    1
59    29    30    1
60    29    78    1
61    29    79    1
62    30    35    ar
63    30    31    ar
64    31    32    ar
65    31    80    1
66    32    33    ar
67    32    81    1
68    33    34    ar
69    33    82    1
70    34    35    ar
71    34    83    1
72    35    84    1
73    36    37    2
74    36    38    am
75    38    39    1
76    38    85    1
77    39    40    1
78    39    48    1
79    39    41    1
80    41    46    ar
81    41    42    ar
82    42    43    ar
83    42    86    1
84    43    44    ar
85    43    87    1
86    44    45    ar
87    44    88    1
88    45    46    ar
89    45    89    1
90    46    47    1
91    47    48    1
92    47    90    1
93    47    91    1
94    48    49    1
95    48    50    1
96    50    92    1
@<TRIPOS>SUBSTRUCTURE
1   ZINC000022446654 1     RESIDUE    1   A     ZIN   1
