@<TRIPOS>MOLECULE
ZINC000072316335
63    67    1     0     0
SMALL
USER_CHARGES
@<TRIPOS>ATOM
1      C1     -1.2542    0.5569   -2.1478 C.3      1 ZINC000072316335    0.0900
2      N2     -0.6645   -0.7826   -2.2114 N.am     1 ZINC000072316335   -0.6000
3      C3     -0.5908   -1.4905   -3.4919 C.3      1 ZINC000072316335    0.0600
4      C4     -0.1897   -1.3638   -1.0918 C.2      1 ZINC000072316335    0.5800
5      O5     -0.3461   -0.8237   -0.0128 O.2      1 ZINC000072316335   -0.5300
6      C6      0.5163   -2.6490   -1.1743 C.2      1 ZINC000072316335    0.0200
7      C7      0.8779   -3.2778   -2.3245 C.2      1 ZINC000072316335   -0.1300
8      C8      1.5316   -4.4782   -1.9672 C.ar     1 ZINC000072316335   -0.2500
9      C9      2.1171   -5.5262   -2.6874 C.ar     1 ZINC000072316335    0.2400
10     N10     2.6576   -6.5284   -2.0196 N.ar     1 ZINC000072316335   -0.5100
11     C11     2.6520   -6.5529   -0.6911 C.ar     1 ZINC000072316335    0.5700
12     N12     3.2328   -7.6281   -0.0416 N.pl3    1 ZINC000072316335   -0.6200
13     C13     3.7094   -8.7128   -0.7776 C.ar     1 ZINC000072316335    0.3800
14     C14     4.1790   -9.8404   -0.1138 C.ar     1 ZINC000072316335   -0.1900
15     C15     4.6496  -10.9109   -0.8528 C.ar     1 ZINC000072316335   -0.0500
16     C16     4.6341  -10.8156   -2.2432 C.ar     1 ZINC000072316335   -0.0100
17     N17     5.1002  -11.8745   -3.0313 N.3      1 ZINC000072316335   -0.4800
18     C18     6.4840  -12.2234   -2.6798 C.3      1 ZINC000072316335    0.0200
19     C19     6.9342  -13.4205   -3.5201 C.3      1 ZINC000072316335    0.0000
20     N20     6.8442  -13.0796   -4.9460 N.4      1 ZINC000072316335   -0.5100
21     H21     7.4308  -12.2815   -5.1385 H        1 ZINC000072316335    0.4300
22     H22     7.1526  -13.8648   -5.4994 H        1 ZINC000072316335    0.4400
23     C23     5.4523  -12.7574   -5.2872 C.3      1 ZINC000072316335    0.0000
24     C24     4.9898  -11.5548   -4.4616 C.3      1 ZINC000072316335    0.0200
25     C25     4.1507   -9.6585   -2.8363 C.ar     1 ZINC000072316335    0.1100
26     N26     3.7045   -8.6589   -2.1000 N.ar     1 ZINC000072316335   -0.4400
27     N27     2.1118   -5.5868    0.0334 N.ar     1 ZINC000072316335   -0.5600
28     C28     1.5447   -4.5389   -0.5548 C.ar     1 ZINC000072316335    0.3700
29     N29     0.9257   -3.4117   -0.0928 N.pl3    1 ZINC000072316335   -0.4200
30     C30     0.7269   -3.0662    1.3169 C.3      1 ZINC000072316335    0.1200
31     C31    -0.1928   -4.1053    1.9910 C.3      1 ZINC000072316335   -0.1300
32     C32     0.7864   -5.1055    2.6544 C.3      1 ZINC000072316335   -0.1300
33     C33     1.9195   -4.1838    3.1697 C.3      1 ZINC000072316335   -0.1100
34     C34     2.0699   -3.1161    2.0663 C.3      1 ZINC000072316335   -0.1300
35     H35    -2.3239    0.4742   -1.9558 H        1 ZINC000072316335    0.0600
36     H36    -0.7835    1.1233   -1.3442 H        1 ZINC000072316335    0.0800
37     H37    -1.0938    1.0699   -3.0961 H        1 ZINC000072316335    0.0800
38     H38     0.3920   -1.3350   -3.9370 H        1 ZINC000072316335    0.0700
39     H39    -0.7508   -2.5561   -3.3277 H        1 ZINC000072316335    0.0900
40     H40    -1.3587   -1.1071   -4.1637 H        1 ZINC000072316335    0.0800
41     H41     0.6977   -2.9240   -3.3288 H        1 ZINC000072316335    0.1800
42     H42     2.1261   -5.5152   -3.7673 H        1 ZINC000072316335    0.1700
43     H43     3.3084   -7.6274    0.9254 H        1 ZINC000072316335    0.4300
44     H44     4.1767   -9.8801    0.9654 H        1 ZINC000072316335    0.1400
45     H45     5.0206  -11.7996   -0.3639 H        1 ZINC000072316335    0.1400
46     H46     7.1356  -11.3729   -2.8800 H        1 ZINC000072316335    0.0700
47     H47     6.5365  -12.4812   -1.6220 H        1 ZINC000072316335    0.1300
48     H48     7.9651  -13.6720   -3.2710 H        1 ZINC000072316335    0.1400
49     H49     6.2908  -14.2748   -3.3094 H        1 ZINC000072316335    0.1400
50     H50     5.3846  -12.5173   -6.3483 H        1 ZINC000072316335    0.1400
51     H51     4.8165  -13.6151   -5.0675 H        1 ZINC000072316335    0.1400
52     H52     3.9522  -11.3249   -4.7038 H        1 ZINC000072316335    0.1300
53     H53     5.6168  -10.6933   -4.6912 H        1 ZINC000072316335    0.0700
54     H54     4.1354   -9.5768   -3.9131 H        1 ZINC000072316335    0.1600
55     H55     0.2902   -2.0709    1.3992 H        1 ZINC000072316335    0.1300
56     H56    -0.8194   -3.6282    2.7445 H        1 ZINC000072316335    0.0800
57     H57    -0.8077   -4.6105    1.2462 H        1 ZINC000072316335    0.0700
58     H58     0.3050   -5.6257    3.4824 H        1 ZINC000072316335    0.0600
59     H59     1.1692   -5.8153    1.9211 H        1 ZINC000072316335    0.0900
60     H60     1.6340   -3.7194    4.1135 H        1 ZINC000072316335    0.0700
61     H61     2.8460   -4.7463    3.2851 H        1 ZINC000072316335    0.0700
62     H62     2.8696   -3.3974    1.3812 H        1 ZINC000072316335    0.0700
63     H63     2.2845   -2.1453    2.5130 H        1 ZINC000072316335    0.0800
@<TRIPOS>BOND
1     1     2     1
2     1     35    1
3     1     36    1
4     1     37    1
5     2     3     1
6     2     4     am
7     3     38    1
8     3     39    1
9     3     40    1
10    4     5     2
11    4     6     1
12    6     29    1
13    6     7     2
14    7     8     1
15    7     41    1
16    8     28    ar
17    8     9     ar
18    9     10    ar
19    9     42    1
20    10    11    ar
21    11    12    1
22    11    27    ar
23    12    13    1
24    12    43    1
25    13    26    ar
26    13    14    ar
27    14    15    ar
28    14    44    1
29    15    16    ar
30    15    45    1
31    16    17    1
32    16    25    ar
33    17    24    1
34    17    18    1
35    18    19    1
36    18    46    1
37    18    47    1
38    19    20    1
39    19    48    1
40    19    49    1
41    20    21    1
42    20    22    1
43    20    23    1
44    23    24    1
45    23    50    1
46    23    51    1
47    24    52    1
48    24    53    1
49    25    26    ar
50    25    54    1
51    27    28    ar
52    28    29    1
53    29    30    1
54    30    34    1
55    30    31    1
56    30    55    1
57    31    32    1
58    31    56    1
59    31    57    1
60    32    33    1
61    32    58    1
62    32    59    1
63    33    34    1
64    33    60    1
65    33    61    1
66    34    62    1
67    34    63    1
@<TRIPOS>SUBSTRUCTURE
1   ZINC000072316335 1     RESIDUE    1   A     ZIN   1
