@<TRIPOS>MOLECULE
ZINC000169341689
67    71    1     0     0
SMALL
USER_CHARGES
@<TRIPOS>ATOM
1      N1      0.8025    1.2087    0.4635 N.am     1 ZINC000169341689   -0.8500
2      C2      0.4996   -0.0949    0.3043 C.2      1 ZINC000169341689    0.5700
3      O3      1.3675   -0.9390    0.4176 O.2      1 ZINC000169341689   -0.5200
4      C4     -0.8845   -0.4976   -0.0072 C.ar     1 ZINC000169341689   -0.1900
5      C5     -1.9113    0.4463   -0.0297 C.ar     1 ZINC000169341689    0.1400
6      N6     -3.1470    0.0867   -0.3078 N.ar     1 ZINC000169341689   -0.4800
7      C7     -3.4706   -1.1662   -0.5756 C.ar     1 ZINC000169341689    0.1300
8      C8     -2.5206   -2.1649   -0.5763 C.ar     1 ZINC000169341689   -0.1500
9      C9     -1.1939   -1.8422   -0.2935 C.ar     1 ZINC000169341689    0.2700
10     N10    -0.2091   -2.8178   -0.2848 N.pl3    1 ZINC000169341689   -0.5300
11     C11     0.6054   -3.0471   -1.4807 C.3      1 ZINC000169341689    0.1400
12     C12     0.0118   -4.2032   -2.2881 C.3      1 ZINC000169341689    0.0600
13     O13    -1.2888   -3.8395   -2.7552 O.3      1 ZINC000169341689   -0.5700
14     C14     0.0054   -3.5782    0.8581 C.ar     1 ZINC000169341689    0.4500
15     N15    -0.6543   -3.3117    1.9783 N.ar     1 ZINC000169341689   -0.5200
16     C16    -0.4520   -4.0355    3.0712 C.ar     1 ZINC000169341689    0.4000
17     C17    -1.2081   -3.7080    4.3041 C.2      1 ZINC000169341689    0.1500
18     N18    -2.0950   -2.7451    4.4352 N.2      1 ZINC000169341689   -0.2300
19     N19    -2.5755   -2.7721    5.7496 N.pl3    1 ZINC000169341689   -0.3500
20     C20    -3.5788   -1.8676    6.3166 C.3      1 ZINC000169341689    0.1800
21     C21    -4.9531   -2.4523    6.1154 C.ar     1 ZINC000169341689   -0.1500
22     C22    -5.7089   -2.0803    5.0201 C.ar     1 ZINC000169341689   -0.0600
23     C23    -6.9699   -2.6166    4.8354 C.ar     1 ZINC000169341689   -0.1300
24     C24    -7.4761   -3.5248    5.7461 C.ar     1 ZINC000169341689   -0.0800
25     C25    -6.7220   -3.8980    6.8427 C.ar     1 ZINC000169341689   -0.1600
26     C26    -5.4567   -3.3668    7.0252 C.ar     1 ZINC000169341689    0.1200
27     F27    -4.7188   -3.7308    8.0968 F        1 ZINC000169341689   -0.1300
28     C28    -1.9525   -3.7789    6.4063 C.2      1 ZINC000169341689    0.0500
29     C29    -1.1077   -4.3785    5.5426 C.2      1 ZINC000169341689   -0.2100
30     C30    -0.3796   -5.5169    6.2244 C.3      1 ZINC000169341689   -0.0400
31     C31    -0.5709   -5.2650    7.7360 C.3      1 ZINC000169341689   -0.1200
32     C32    -1.8858   -4.4530    7.7599 C.3      1 ZINC000169341689   -0.0400
33     N33     0.4077   -5.0439    3.0905 N.ar     1 ZINC000169341689   -0.5000
34     C34     1.1018   -5.3683    2.0103 C.ar     1 ZINC000169341689    0.0900
35     C35     0.9175   -4.6420    0.8440 C.ar     1 ZINC000169341689   -0.0200
36     O36     1.6134   -4.9476   -0.2839 O.3      1 ZINC000169341689   -0.2900
37     C37     2.5308   -6.0403   -0.2041 C.3      1 ZINC000169341689    0.0500
38     C38     3.2148   -6.2320   -1.5592 C.3      1 ZINC000169341689    0.0800
39     O39     4.0163   -5.0864   -1.8545 O.3      1 ZINC000169341689   -0.5700
40     H40     1.7129    1.4736    0.6683 H        1 ZINC000169341689    0.4100
41     H41     0.1110    1.8824    0.3692 H        1 ZINC000169341689    0.4000
42     H42    -1.6907    1.4819    0.1833 H        1 ZINC000169341689    0.1600
43     H43    -4.4985   -1.4122   -0.7977 H        1 ZINC000169341689    0.1600
44     H44    -2.7998   -3.1845   -0.7970 H        1 ZINC000169341689    0.1400
45     H45     0.6156   -2.1446   -2.0919 H        1 ZINC000169341689    0.0800
46     H46     1.6242   -3.2965   -1.1841 H        1 ZINC000169341689    0.1200
47     H47     0.6563   -4.4200   -3.1400 H        1 ZINC000169341689    0.0500
48     H48    -0.0635   -5.0874   -1.6552 H        1 ZINC000169341689    0.0600
49     H49    -1.7261   -4.5269   -3.2761 H        1 ZINC000169341689    0.3800
50     H50    -3.3910   -1.7390    7.3826 H        1 ZINC000169341689    0.1100
51     H51    -3.5189   -0.9002    5.8179 H        1 ZINC000169341689    0.1100
52     H52    -5.3147   -1.3702    4.3083 H        1 ZINC000169341689    0.1400
53     H53    -7.5599   -2.3253    3.9790 H        1 ZINC000169341689    0.1300
54     H54    -8.4613   -3.9428    5.6009 H        1 ZINC000169341689    0.1400
55     H55    -7.1180   -4.6072    7.5546 H        1 ZINC000169341689    0.1400
56     H56    -0.8207   -6.4725    5.9408 H        1 ZINC000169341689    0.0700
57     H57     0.6796   -5.4967    5.9680 H        1 ZINC000169341689    0.0800
58     H58    -0.6857   -6.2048    8.2760 H        1 ZINC000169341689    0.0800
59     H59     0.2568   -4.6830    8.1416 H        1 ZINC000169341689    0.0800
60     H60    -1.8544   -3.7043    8.5515 H        1 ZINC000169341689    0.0800
61     H61    -2.7387   -5.1173    7.8993 H        1 ZINC000169341689    0.0900
62     H62     1.8002   -6.1916    2.0365 H        1 ZINC000169341689    0.1700
63     H63     3.2829   -5.8286    0.5559 H        1 ZINC000169341689    0.0700
64     H64     1.9910   -6.9491    0.0622 H        1 ZINC000169341689    0.0800
65     H65     3.8474   -7.1189   -1.5246 H        1 ZINC000169341689    0.0700
66     H66     2.4580   -6.3554   -2.3339 H        1 ZINC000169341689    0.0600
67     H67     4.4806   -5.1388   -2.7011 H        1 ZINC000169341689    0.3800
@<TRIPOS>BOND
1     1     2     am
2     1     40    1
3     1     41    1
4     2     3     2
5     2     4     1
6     4     9     ar
7     4     5     ar
8     5     6     ar
9     5     42    1
10    6     7     ar
11    7     8     ar
12    7     43    1
13    8     9     ar
14    8     44    1
15    9     10    1
16    10    11    1
17    10    14    1
18    11    12    1
19    11    45    1
20    11    46    1
21    12    13    1
22    12    47    1
23    12    48    1
24    13    49    1
25    14    35    ar
26    14    15    ar
27    15    16    ar
28    16    17    1
29    16    33    ar
30    17    29    1
31    17    18    2
32    18    19    1
33    19    20    1
34    19    28    1
35    20    21    1
36    20    50    1
37    20    51    1
38    21    26    ar
39    21    22    ar
40    22    23    ar
41    22    52    1
42    23    24    ar
43    23    53    1
44    24    25    ar
45    24    54    1
46    25    26    ar
47    25    55    1
48    26    27    1
49    28    32    1
50    28    29    2
51    29    30    1
52    30    31    1
53    30    56    1
54    30    57    1
55    31    32    1
56    31    58    1
57    31    59    1
58    32    60    1
59    32    61    1
60    33    34    ar
61    34    35    ar
62    34    62    1
63    35    36    1
64    36    37    1
65    37    38    1
66    37    63    1
67    37    64    1
68    38    39    1
69    38    65    1
70    38    66    1
71    39    67    1
@<TRIPOS>SUBSTRUCTURE
1   ZINC000169341689 1     RESIDUE    1   A     ZIN   1
