@<TRIPOS>MOLECULE
ZINC000000027374
  25   27    0    0    0
SMALL
USER_CHARGES
NO_NAME
@<TRIPOS>ATOM
    1 O1        0.0021    -0.0041     0.0020 O.2    1 <0>      -0.4300
    2 C2       -0.0143     1.2041     0.0087 C.2    1 <0>       0.4900
    3 C3       -1.3164     1.9804     0.0317 C.3    1 <0>      -0.1700
    4 C4       -1.2912     2.8743     1.2755 C.3    1 <0>      -0.0800
    5 C5        0.0639     3.5210     1.4140 C.ar   1 <0>      -0.1500
    6 C6        0.1728     4.6776     2.2115 C.ar   1 <0>      -0.0200
    7 C7       -0.9549     5.2202     2.8529 C.ar   1 <0>      -0.1200
    8 C8       -0.8207     6.3382     3.6171 C.ar   1 <0>      -0.1000
    9 C9        0.4189     6.9555     3.7752 C.ar   1 <0>      -0.1200
   10 C10       1.5319     6.4581     3.1696 C.ar   1 <0>      -0.0900
   11 C11       1.4318     5.3049     2.3727 C.ar   1 <0>      -0.0700
   12 C12       2.5577     4.7601     1.7322 C.ar   1 <0>      -0.0700
   13 C13       2.4196     3.6482     0.9657 C.ar   1 <0>      -0.1200
   14 C14       1.1729     3.0235     0.7990 C.ar   1 <0>       0.1300
   15 O15       1.1226     1.9245     0.0017 O.3    1 <0>      -0.3000
   16 H16      -1.3979     2.5947    -0.8650 H      1 <0>       0.1100
   17 H17      -2.1586     1.2906     0.0877 H      1 <0>       0.1200
   18 H18      -2.0536     3.6476     1.1812 H      1 <0>       0.1000
   19 H19      -1.4966     2.2707     2.1595 H      1 <0>       0.0900
   20 H20      -1.9218     4.7526     2.7394 H      1 <0>       0.1300
   21 H21      -1.6880     6.7534     4.1089 H      1 <0>       0.1300
   22 H22       0.4975     7.8420     4.3870 H      1 <0>       0.1300
   23 H23       2.4861     6.9465     3.3010 H      1 <0>       0.1300
   24 H24       3.5265     5.2227     1.8491 H      1 <0>       0.1400
   25 H25       3.2877     3.2343     0.4743 H      1 <0>       0.1400
@<TRIPOS>BOND
   1    1    2 2
   2    2   15 1
   3    2    3 1
   4    3    4 1
   5    3   16 1
   6    3   17 1
   7    4    5 1
   8    4   18 1
   9    4   19 1
  10    5   14 ar
  11    5    6 ar
  12    6   11 ar
  13    6    7 ar
  14    7    8 ar
  15    7   20 1
  16    8    9 ar
  17    8   21 1
  18    9   10 ar
  19    9   22 1
  20   10   11 ar
  21   10   23 1
  22   11   12 ar
  23   12   13 ar
  24   12   24 1
  25   13   14 ar
  26   13   25 1
  27   14   15 1
