@<TRIPOS>MOLECULE
ZINC000650363794
34    36    1     0     0
SMALL
USER_CHARGES
@<TRIPOS>ATOM
1      O1      0.1302    0.2413    0.8559 O.2      1 ZINC000650363794   -0.5200
2      C2      0.0525    1.4075    0.5180 C.2      1 ZINC000650363794    0.5800
3      N3      1.1449    2.0508    0.0606 N.am     1 ZINC000650363794   -0.6600
4      C4      2.3987    1.4346    0.1280 C.ar     1 ZINC000650363794    0.1400
5      C5      2.5024    0.0546    0.0053 C.ar     1 ZINC000650363794   -0.1100
6      C6      3.7398   -0.5575    0.0713 C.ar     1 ZINC000650363794   -0.1000
7      C7      4.8793    0.1988    0.2596 C.ar     1 ZINC000650363794   -0.0900
8      C8      4.7846    1.5836    0.3837 C.ar     1 ZINC000650363794    0.0000
9      C9      6.0093    2.3981    0.5867 C.2      1 ZINC000650363794    0.2200
10     N10     7.2473    1.9523    0.6641 N.2      1 ZINC000650363794   -0.2900
11     N11     8.0213    2.9671    0.8428 N.pl3    1 ZINC000650363794   -0.2300
12     N12     7.3131    4.0414    0.8811 N.2      1 ZINC000650363794   -0.0500
13     N13     6.0716    3.7303    0.7212 N.2      1 ZINC000650363794   -0.2700
14     C14     3.5398    2.2017    0.3116 C.ar     1 ZINC000650363794   -0.1000
15     C15    -1.2347    2.1134    0.6030 C.2      1 ZINC000650363794   -0.2400
16     C16    -2.3225    1.5292    1.2491 C.2      1 ZINC000650363794    0.0600
17     C17    -3.5272    2.2292    1.3100 C.2      1 ZINC000650363794   -0.1600
18     C18    -3.6297    3.4599    0.7461 C.2      1 ZINC000650363794    0.0900
19     C19    -4.9395    4.2013    0.8219 C.3      1 ZINC000650363794    0.5100
20     F20    -5.8761    3.4239    1.5116 F        1 ZINC000650363794   -0.1500
21     F21    -4.7515    5.4124    1.4965 F        1 ZINC000650363794   -0.1600
22     F22    -5.4069    4.4558   -0.4719 F        1 ZINC000650363794   -0.1600
23     N23    -2.5766    4.0340    0.1170 N.am     1 ZINC000650363794   -0.5800
24     C24    -1.3895    3.4040    0.0337 C.2      1 ZINC000650363794    0.5400
25     O25    -0.4532    3.9370   -0.5363 O.2      1 ZINC000650363794   -0.5300
26     H26     1.0616    2.9411   -0.3153 H        1 ZINC000650363794    0.4300
27     H27     1.6138   -0.5414   -0.1418 H        1 ZINC000650363794    0.1500
28     H28     3.8155   -1.6306   -0.0242 H        1 ZINC000650363794    0.1400
29     H29     5.8445   -0.2830    0.3111 H        1 ZINC000650363794    0.1300
30     H30     8.9862    2.9275    0.9344 H        1 ZINC000650363794    0.4800
31     H31     3.4616    3.2746    0.4069 H        1 ZINC000650363794    0.1400
32     H32    -2.2341    0.5497    1.6953 H        1 ZINC000650363794    0.1700
33     H33    -4.3805    1.7912    1.8066 H        1 ZINC000650363794    0.1800
34     H34    -2.6782    4.9146   -0.2768 H        1 ZINC000650363794    0.4300
@<TRIPOS>BOND
1     1     2     2
2     2     3     am
3     2     15    1
4     3     4     1
5     3     26    1
6     4     14    ar
7     4     5     ar
8     5     6     ar
9     5     27    1
10    6     7     ar
11    6     28    1
12    7     8     ar
13    7     29    1
14    8     9     1
15    8     14    ar
16    9     13    1
17    9     10    2
18    10    11    1
19    11    12    1
20    11    30    1
21    12    13    2
22    14    31    1
23    15    24    1
24    15    16    2
25    16    17    1
26    16    32    1
27    17    18    2
28    17    33    1
29    18    19    1
30    18    23    1
31    19    20    1
32    19    21    1
33    19    22    1
34    23    24    am
35    23    34    1
36    24    25    2
@<TRIPOS>SUBSTRUCTURE
1   ZINC000650363794 1     RESIDUE    1   A     ZIN   1
