@<TRIPOS>MOLECULE
ZINC000060389978
57    58    1     0     0
SMALL
USER_CHARGES
@<TRIPOS>ATOM
1      C1     -3.8810    1.4479   -4.5656 C.3      1 ZINC000060389978   -0.1700
2      C2     -3.7795   -0.0787   -4.5621 C.3      1 ZINC000060389978   -0.1100
3      C3     -4.7035   -0.6487   -3.4841 C.3      1 ZINC000060389978   -0.0800
4      H4     -5.7050   -0.2370   -3.6092 H        1 ZINC000060389978    0.0800
5      C5     -4.7586   -2.1723   -3.6132 C.3      1 ZINC000060389978   -0.1600
6      C6     -4.1667   -0.2731   -2.1015 C.3      1 ZINC000060389978   -0.0600
7      H7     -3.1097   -0.5318   -2.0395 H        1 ZINC000060389978    0.1000
8      C8     -4.9312   -1.0270   -1.0440 C.2      1 ZINC000060389978    0.5300
9      O9     -5.8074   -0.4706   -0.4165 O.2      1 ZINC000060389978   -0.5300
10     N10    -4.6414   -2.3195   -0.7955 N.am     1 ZINC000060389978   -0.7200
11     C11    -5.4556   -3.0836    0.1528 C.3      1 ZINC000060389978    0.1000
12     C12    -4.9260   -4.4912    0.2494 C.2      1 ZINC000060389978    0.5100
13     O13    -3.9632   -4.8234   -0.4091 O.2      1 ZINC000060389978   -0.5100
14     N14    -5.5223   -5.3809    1.0676 N.am     1 ZINC000060389978   -0.6700
15     C15    -5.0120   -6.6789    1.1805 C.ar     1 ZINC000060389978    0.1200
16     C16    -5.8354   -7.7729    0.9482 C.ar     1 ZINC000060389978   -0.0800
17     C17    -7.2800   -7.5636    0.5735 C.3      1 ZINC000060389978   -0.1100
18     C18    -5.3287   -9.0528    1.0605 C.ar     1 ZINC000060389978   -0.1200
19     C19    -4.0033   -9.2456    1.4042 C.ar     1 ZINC000060389978   -0.0800
20     C20    -3.4539  -10.6436    1.5263 C.3      1 ZINC000060389978   -0.1200
21     C21    -3.1807   -8.1584    1.6357 C.ar     1 ZINC000060389978   -0.1200
22     C22    -3.6798   -6.8758    1.5194 C.ar     1 ZINC000060389978   -0.0600
23     C23    -2.7827   -5.6916    1.7719 C.3      1 ZINC000060389978   -0.1200
24     C24    -4.3349    1.2084   -1.8828 C.ar     1 ZINC000060389978   -0.0600
25     C25    -5.5753    1.7953   -2.0500 C.ar     1 ZINC000060389978   -0.0800
26     C26    -5.7296    3.1543   -1.8494 C.ar     1 ZINC000060389978   -0.1200
27     C27    -4.6436    3.9263   -1.4811 C.ar     1 ZINC000060389978   -0.1200
28     C28    -3.4035    3.3392   -1.3130 C.ar     1 ZINC000060389978   -0.1200
29     C29    -3.2501    1.9795   -1.5094 C.ar     1 ZINC000060389978   -0.1200
30     H30    -3.3801    1.8433   -5.4493 H        1 ZINC000060389978    0.0500
31     H31    -4.9304    1.7423   -4.5806 H        1 ZINC000060389978    0.0500
32     H32    -3.4047    1.8458   -3.6695 H        1 ZINC000060389978    0.0700
33     H33    -4.0769   -0.4649   -5.5370 H        1 ZINC000060389978    0.0700
34     H34    -2.7513   -0.3740   -4.3526 H        1 ZINC000060389978    0.0600
35     H35    -3.7901   -2.5948   -3.3457 H        1 ZINC000060389978    0.0600
36     H36    -5.5240   -2.5661   -2.9445 H        1 ZINC000060389978    0.0600
37     H37    -5.0010   -2.4413   -4.6413 H        1 ZINC000060389978    0.0600
38     H38    -3.8936   -2.7439   -1.2446 H        1 ZINC000060389978    0.4100
39     H39    -5.4109   -2.6105    1.1337 H        1 ZINC000060389978    0.1000
40     H40    -6.4892   -3.1072   -0.1924 H        1 ZINC000060389978    0.1000
41     H41    -6.3051   -5.1214    1.5782 H        1 ZINC000060389978    0.4100
42     H42    -7.3800   -7.5802   -0.5117 H        1 ZINC000060389978    0.0700
43     H43    -7.8865   -8.3591    1.0065 H        1 ZINC000060389978    0.0700
44     H44    -7.6184   -6.6002    0.9549 H        1 ZINC000060389978    0.0600
45     H45    -5.9685   -9.9039    0.8800 H        1 ZINC000060389978    0.1300
46     H46    -3.0614  -10.9653    0.5616 H        1 ZINC000060389978    0.0700
47     H47    -2.6539  -10.6562    2.2665 H        1 ZINC000060389978    0.0700
48     H48    -4.2490  -11.3204    1.8390 H        1 ZINC000060389978    0.0700
49     H49    -2.1460   -8.3123    1.9040 H        1 ZINC000060389978    0.1300
50     H50    -2.4232   -5.2988    0.8208 H        1 ZINC000060389978    0.0900
51     H51    -3.3423   -4.9172    2.2966 H        1 ZINC000060389978    0.0600
52     H52    -1.9337   -6.0022    2.3809 H        1 ZINC000060389978    0.0600
53     H53    -6.4237    1.1922   -2.3378 H        1 ZINC000060389978    0.1200
54     H54    -6.6985    3.6130   -1.9808 H        1 ZINC000060389978    0.1200
55     H55    -4.7640    4.9882   -1.3251 H        1 ZINC000060389978    0.1200
56     H56    -2.5550    3.9424   -1.0256 H        1 ZINC000060389978    0.1200
57     H57    -2.2812    1.5209   -1.3781 H        1 ZINC000060389978    0.1200
@<TRIPOS>BOND
1     1     2     1
2     1     30    1
3     1     31    1
4     1     32    1
5     2     3     1
6     2     33    1
7     2     34    1
8     3     4     1
9     3     5     1
10    3     6     1
11    5     35    1
12    5     36    1
13    5     37    1
14    6     7     1
15    6     8     1
16    6     24    1
17    8     9     2
18    8     10    am
19    10    11    1
20    10    38    1
21    11    12    1
22    11    39    1
23    11    40    1
24    12    13    2
25    12    14    am
26    14    15    1
27    14    41    1
28    15    22    ar
29    15    16    ar
30    16    17    1
31    16    18    ar
32    17    42    1
33    17    43    1
34    17    44    1
35    18    19    ar
36    18    45    1
37    19    20    1
38    19    21    ar
39    20    46    1
40    20    47    1
41    20    48    1
42    21    22    ar
43    21    49    1
44    22    23    1
45    23    50    1
46    23    51    1
47    23    52    1
48    24    29    ar
49    24    25    ar
50    25    26    ar
51    25    53    1
52    26    27    ar
53    26    54    1
54    27    28    ar
55    27    55    1
56    28    29    ar
57    28    56    1
58    29    57    1
@<TRIPOS>SUBSTRUCTURE
1   ZINC000060389978 1     RESIDUE    1   A     ZIN   1
