@<TRIPOS>MOLECULE
ZINC000003986735
  59   62    0    0    0
SMALL
NO_CHARGES
@<TRIPOS>ATOM
   1 C1             2.5054     0.5664    -0.2808 C.3     
   2 C2             1.7487    -0.7349    -0.2098 C.ar    
   3 N3             1.2888    -1.2688    -1.3226 N.ar    
   4 C4             0.6153    -2.4175    -1.3024 C.ar    
   5 N5             0.1346    -2.9732    -2.4809 N.pl3   
   6 C6             0.2552    -2.2814    -3.6698 C.2     
   7 N7             0.8858    -1.1509    -3.8099 N.2     
   8 C8             0.9095    -0.6217    -5.0065 C.2     
   9 C9             0.2507    -1.3562    -5.9532 C.2     
  10 C10            0.1126    -1.0133    -7.3680 C.2     
  11 O11            0.6113     0.0110    -7.7977 O.2     
  12 N12           -0.5667    -1.8311    -8.1964 N.am    
  13 C13           -0.6009    -1.5647    -9.5694 C.ar    
  14 C14           -0.2615    -2.5569   -10.4792 C.ar    
  15 C15            0.1445    -3.9229    -9.9890 C.3     
  16 C16           -0.2967    -2.2909   -11.8345 C.ar    
  17 C17           -0.6689    -1.0382   -12.2856 C.ar    
  18 C18           -1.0074    -0.0468   -11.3826 C.ar    
  19 C19           -0.9804    -0.3077   -10.0259 C.ar    
  20 Cl20          -1.4058     0.9367    -8.8928 Cl      
  21 S21           -0.3962    -2.7930    -5.1649 S.3     
  22 C22            0.4006    -3.0528    -0.0839 C.ar    
  23 C23            0.9031    -2.4553     1.0687 C.ar    
  24 N24            0.7158    -3.0487     2.3074 N.pl3   
  25 C25            1.0496    -2.3305     3.5468 C.3     
  26 C26           -0.1583    -2.3953     4.4874 C.3     
  27 N27           -0.5579    -3.7970     4.6703 N.3     
  28 C28           -1.6013    -3.9173     5.6973 C.3     
  29 C29           -1.8138    -5.3937     6.0379 C.3     
  30 O30           -0.6289    -5.9192     6.6394 O.3     
  31 C31           -0.9957    -4.3960     3.4024 C.3     
  32 C32            0.1722    -4.4109     2.4175 C.3     
  33 N33            1.5708    -1.3082     0.9632 N.ar    
  34 H34            3.5673     0.3622    -0.4178 H       
  35 H35            2.1373     1.1553    -1.1210 H       
  36 H36            2.3589     1.1230     0.6449 H       
  37 H37           -0.2858    -3.8473    -2.4689 H       
  38 H38            1.4053     0.3122    -5.2267 H       
  39 H39           -1.0319    -2.6043    -7.8406 H       
  40 H40           -0.7387    -4.5562    -9.9053 H       
  41 H41            0.8457    -4.3685   -10.6946 H       
  42 H42            0.6202    -3.8319    -9.0125 H       
  43 H43           -0.0327    -3.0626   -12.5425 H       
  44 H44           -0.6952    -0.8332   -13.3457 H       
  45 H45           -1.2975     0.9308   -11.7383 H       
  46 H46           -0.1420    -3.9852    -0.0332 H       
  47 H47            1.9099    -2.8014     4.0225 H       
  48 H48            1.2791    -1.2901     3.3165 H       
  49 H49            0.1086    -1.9643     5.4524 H       
  50 H50           -0.9867    -1.8344     4.0548 H       
  51 H51           -1.2930    -3.3785     6.5933 H       
  52 H52           -2.5323    -3.4936     5.3209 H       
  53 H53           -2.6476    -5.4898     6.7334 H       
  54 H54           -2.0353    -5.9486     5.1263 H       
  55 H55           -0.6919    -6.8531     6.8820 H       
  56 H56           -1.3361    -5.4161     3.5805 H       
  57 H57           -1.8125    -3.8072     2.9849 H       
  58 H58           -0.1764    -4.7477     1.4412 H       
  59 H59            0.9505    -5.0809     2.7826 H       
@<TRIPOS>BOND
   1    1    2 1
   2    1   34 1
   3    1   35 1
   4    1   36 1
   5    2   33 ar
   6    2    3 ar
   7    3    4 ar
   8    4    5 1
   9    4   22 ar
  10    5    6 1
  11    5   37 1
  12    6   21 1
  13    6    7 2
  14    7    8 1
  15    8    9 2
  16    8   38 1
  17    9   10 1
  18    9   21 1
  19   10   11 2
  20   10   12 am
  21   12   13 1
  22   12   39 1
  23   13   19 ar
  24   13   14 ar
  25   14   15 1
  26   14   16 ar
  27   15   40 1
  28   15   41 1
  29   15   42 1
  30   16   17 ar
  31   16   43 1
  32   17   18 ar
  33   17   44 1
  34   18   19 ar
  35   18   45 1
  36   19   20 1
  37   22   23 ar
  38   22   46 1
  39   23   24 1
  40   23   33 ar
  41   24   32 1
  42   24   25 1
  43   25   26 1
  44   25   47 1
  45   25   48 1
  46   26   27 1
  47   26   49 1
  48   26   50 1
  49   27   28 1
  50   27   31 1
  51   28   29 1
  52   28   51 1
  53   28   52 1
  54   29   30 1
  55   29   53 1
  56   29   54 1
  57   30   55 1
  58   31   32 1
  59   31   56 1
  60   31   57 1
  61   32   58 1
  62   32   59 1
