@<TRIPOS>MOLECULE
ZINC000009494063
49    53    1     0     0
SMALL
USER_CHARGES
@<TRIPOS>ATOM
1      O1      0.0021   -0.0041    0.0020 O.2      1 ZINC000009494063   -0.4700
2      C2     -0.0145    1.2163    0.0087 C.2      1 ZINC000009494063    0.5500
3      N3     -1.1791    1.8838    0.0291 N.2      1 ZINC000009494063   -0.5700
4      C4     -1.2181    3.1871    0.0365 C.2      1 ZINC000009494063    0.4600
5      C5     -2.5607    3.8711    0.0595 C.3      1 ZINC000009494063   -0.1000
6      S6     -3.8757    2.6215    0.0719 S.3      1 ZINC000009494063    0.1400
7      C7     -5.3454    3.5931    0.0982 C.2      1 ZINC000009494063   -0.0200
8      N8     -5.3895    4.8888    0.1000 N.2      1 ZINC000009494063   -0.2600
9      N9     -6.6512    5.4415    0.1216 N.2      1 ZINC000009494063   -0.3600
10     C10    -7.6332    4.5962    0.1373 C.2      1 ZINC000009494063    0.3200
11     N11    -8.9824    4.9296    0.1597 N.pl3    1 ZINC000009494063   -0.6800
12     C12    -9.3892    6.3369    0.1678 C.3      1 ZINC000009494063    0.1200
13     C13   -10.9164    6.4263    0.1929 C.3      1 ZINC000009494063    0.0700
14     H14   -11.3339    5.8513   -0.6337 H        1 ZINC000009494063    0.0900
15     C15   -11.3566    7.9017    0.0796 C.3      1 ZINC000009494063   -0.1500
16     C16   -12.5584    7.9633    1.0614 C.3      1 ZINC000009494063   -0.1600
17     C17   -12.0999    6.9615    2.1508 C.3      1 ZINC000009494063    0.0500
18     O18   -11.4124    5.9190    1.4372 O.3      1 ZINC000009494063   -0.3800
19     S19    -6.9874    2.9586    0.1185 S.3      1 ZINC000009494063    0.0800
20     N20    -0.1091    3.9437    0.0249 N.pl3    1 ZINC000009494063   -0.5800
21     C21     1.1419    3.3704    0.0034 C.2      1 ZINC000009494063    0.0500
22     C22     1.2480    1.9862    0.0008 C.2      1 ZINC000009494063   -0.2100
23     C23     2.5769    1.5403   -0.0215 C.2      1 ZINC000009494063   -0.0600
24     C24     3.5043    2.5004   -0.0363 C.2      1 ZINC000009494063   -0.1500
25     C25     4.9632    2.2629   -0.0614 C.ar     1 ZINC000009494063   -0.0200
26     C26     5.4608    0.9589   -0.0771 C.ar     1 ZINC000009494063   -0.1000
27     C27     6.8233    0.7441   -0.1011 C.ar     1 ZINC000009494063   -0.1100
28     C28     7.6960    1.8178   -0.1095 C.ar     1 ZINC000009494063   -0.1100
29     C29     7.2092    3.1129   -0.0940 C.ar     1 ZINC000009494063   -0.1100
30     C30     5.8488    3.3415   -0.0754 C.ar     1 ZINC000009494063   -0.1100
31     S31     2.7482    4.0849   -0.0155 S.3      1 ZINC000009494063    0.2100
32     H32    -2.6384    4.4891    0.9539 H        1 ZINC000009494063    0.1400
33     H33    -2.6641    4.4985   -0.8258 H        1 ZINC000009494063    0.1400
34     H34    -9.6546    4.2303    0.1701 H        1 ZINC000009494063    0.4200
35     H35    -8.9819    6.8278    1.0517 H        1 ZINC000009494063    0.0800
36     H36    -9.0111    6.8295   -0.7281 H        1 ZINC000009494063    0.0800
37     H37   -10.5583    8.5705    0.4012 H        1 ZINC000009494063    0.0800
38     H38   -11.6737    8.1349   -0.9369 H        1 ZINC000009494063    0.0900
39     H39   -12.6775    8.9651    1.4740 H        1 ZINC000009494063    0.0900
40     H40   -13.4766    7.6270    0.5799 H        1 ZINC000009494063    0.0800
41     H41   -11.4240    7.4494    2.8531 H        1 ZINC000009494063    0.0600
42     H42   -12.9629    6.5532    2.6767 H        1 ZINC000009494063    0.0900
43     H43    -0.1908    4.9102    0.0315 H        1 ZINC000009494063    0.4300
44     H44     2.8330    0.4911   -0.0261 H        1 ZINC000009494063    0.1600
45     H45     4.7807    0.1200   -0.0702 H        1 ZINC000009494063    0.1300
46     H46     7.2097   -0.2643   -0.1129 H        1 ZINC000009494063    0.1300
47     H47     8.7618    1.6443   -0.1278 H        1 ZINC000009494063    0.1300
48     H48     7.8957    3.9466   -0.1003 H        1 ZINC000009494063    0.1300
49     H49     5.4702    4.3529   -0.0633 H        1 ZINC000009494063    0.1200
@<TRIPOS>BOND
1     1     2     2
2     2     22    1
3     2     3     1
4     3     4     2
5     4     5     1
6     4     20    1
7     5     6     1
8     5     32    1
9     5     33    1
10    6     7     1
11    7     19    1
12    7     8     2
13    8     9     1
14    9     10    2
15    10    11    1
16    10    19    1
17    11    12    1
18    11    34    1
19    12    13    1
20    12    35    1
21    12    36    1
22    13    14    1
23    13    18    1
24    13    15    1
25    15    16    1
26    15    37    1
27    15    38    1
28    16    17    1
29    16    39    1
30    16    40    1
31    17    18    1
32    17    41    1
33    17    42    1
34    20    21    1
35    20    43    1
36    21    31    1
37    21    22    2
38    22    23    1
39    23    24    2
40    23    44    1
41    24    25    1
42    24    31    1
43    25    30    ar
44    25    26    ar
45    26    27    ar
46    26    45    1
47    27    28    ar
48    27    46    1
49    28    29    ar
50    28    47    1
51    29    30    ar
52    29    48    1
53    30    49    1
@<TRIPOS>SUBSTRUCTURE
1   ZINC000009494063 1     RESIDUE    1   A     ZIN   1
