@<TRIPOS>MOLECULE
ZINC000024889557
  36   38    0    0    0
SMALL
USER_CHARGES
NO_NAME
@<TRIPOS>ATOM
    1 O1        0.1304     0.2410     0.8566 O.2    1 <0>      -0.5200
    2 C2        0.0522     1.4071     0.5187 C.2    1 <0>       0.5800
    3 N3        1.1443     2.0508     0.0611 N.am   1 <0>      -0.6600
    4 C4        2.3984     1.4351     0.1282 C.ar   1 <0>       0.1400
    5 C5        2.5025     0.0550     0.0048 C.ar   1 <0>      -0.1200
    6 C6        3.7401    -0.5568     0.0705 C.ar   1 <0>      -0.1000
    7 C7        4.8794     0.1996     0.2592 C.ar   1 <0>      -0.1100
    8 C8        4.7844     1.5846     0.3835 C.ar   1 <0>       0.0000
    9 C9        6.0085     2.3992     0.5864 C.2    1 <0>       0.1200
   10 N10       6.0474     3.6947     0.8151 N.2    1 <0>      -0.2800
   11 N11       7.3894     4.0734     0.9474 N.pl3  1 <0>      -0.4700
   12 C12       8.1544     2.9714     0.7922 C.2    1 <0>       0.0600
   13 C13       7.3333     1.9212     0.5742 C.2    1 <0>      -0.2600
   14 C14       3.5391     2.2024     0.3122 C.ar   1 <0>      -0.1200
   15 C15      -1.2353     2.1125     0.6038 C.2    1 <0>      -0.2400
   16 C16      -2.3226     1.5282     1.2504 C.2    1 <0>       0.0600
   17 C17      -3.5278     2.2275     1.3110 C.2    1 <0>      -0.1600
   18 C18      -3.6312     3.4574     0.7457 C.2    1 <0>       0.0900
   19 C19      -4.9415     4.1981     0.8212 C.3    1 <0>       0.5100
   20 F20      -5.8774     3.4208     1.5120 F      1 <0>      -0.1500
   21 F21      -4.7540     5.4100     1.4943 F      1 <0>      -0.1600
   22 F22      -5.4094     4.4509    -0.4728 F      1 <0>      -0.1600
   23 N23      -2.5787     4.0315     0.1156 N.am   1 <0>      -0.5800
   24 C24      -1.3907     3.4027     0.0339 C.2    1 <0>       0.5400
   25 O25      -0.4550     3.9357    -0.5370 O.2    1 <0>      -0.5300
   26 H26       1.0607     2.9411    -0.3147 H      1 <0>       0.4300
   27 H27       1.6141    -0.5411    -0.1426 H      1 <0>       0.1500
   28 H28       3.8160    -1.6298    -0.0256 H      1 <0>       0.1300
   29 H29       5.8447    -0.2820     0.3108 H      1 <0>       0.1300
   30 H30       7.7131     4.9713     1.1202 H      1 <0>       0.4400
   31 H31       9.2328     2.9354     0.8386 H      1 <0>       0.1800
   32 H32       7.6387     0.8980     0.4121 H      1 <0>       0.1500
   33 H33       3.4605     3.2753     0.4080 H      1 <0>       0.1300
   34 H34      -2.2335     0.5490     1.6973 H      1 <0>       0.1700
   35 H35      -4.3806     1.7895     1.8083 H      1 <0>       0.1800
   36 H36      -2.6811     4.9114    -0.2796 H      1 <0>       0.4300
@<TRIPOS>BOND
   1    1    2 2
   2    2    3 am
   3    2   15 1
   4    3    4 1
   5    3   26 1
   6    4   14 ar
   7    4    5 ar
   8    5    6 ar
   9    5   27 1
  10    6    7 ar
  11    6   28 1
  12    7    8 ar
  13    7   29 1
  14    8    9 1
  15    8   14 ar
  16    9   13 1
  17    9   10 2
  18   10   11 1
  19   11   12 1
  20   11   30 1
  21   12   13 2
  22   12   31 1
  23   13   32 1
  24   14   33 1
  25   15   24 1
  26   15   16 2
  27   16   17 1
  28   16   34 1
  29   17   18 2
  30   17   35 1
  31   18   19 1
  32   18   23 1
  33   19   20 1
  34   19   21 1
  35   19   22 1
  36   23   24 am
  37   23   36 1
  38   24   25 2
