@<TRIPOS>MOLECULE
ZINC000059224388
  65   69    0    0    0
SMALL
USER_CHARGES
NO_NAME
@<TRIPOS>ATOM
    1 C1       -0.6270     1.4838     0.0826 C.3    1 <0>      -0.1000
    2 C2       -0.5581    -0.0215     0.0687 C.2    1 <0>      -0.0900
    3 C3       -0.7844    -0.7261    -1.0286 C.2    1 <0>      -0.1500
    4 C4       -1.1313    -0.1335    -2.3700 C.3    1 <0>       0.1200
    5 N5        0.1020     0.1242    -3.1253 N.3    1 <0>      -0.5300
    6 C6        1.1102     0.7776    -2.2800 C.3    1 <0>       0.0300
    7 C7        2.4350     0.8644    -3.0452 C.3    1 <0>       0.1200
    8 N8        2.1861     1.5217    -4.3372 N.am   1 <0>      -0.6100
    9 C9        2.9363     2.5675    -4.7372 C.2    1 <0>       0.5200
   10 O10       3.8306     2.9785    -4.0285 O.2    1 <0>      -0.5100
   11 C11       2.6638     3.2262    -6.0650 C.3    1 <0>       0.0900
   12 H12       1.6193     3.5344    -6.1102 H      1 <0>       0.0800
   13 C13       2.9525     2.2353    -7.1945 C.3    1 <0>      -0.1900
   14 O14       3.5053     4.3720    -6.2099 O.3    1 <0>      -0.5400
   15 C15       1.0971     1.0072    -5.1813 C.3    1 <0>       0.1100
   16 C16      -0.1751     0.9148    -4.3320 C.3    1 <0>       0.0400
   17 S17      -0.6254    -2.4450    -0.7087 S.3    1 <0>       0.1700
   18 C18      -0.2395    -2.1419     0.9791 C.ar   1 <0>      -0.3200
   19 C19       0.0544    -3.0161     2.0396 C.ar   1 <0>       0.5100
   20 N20       0.0729    -4.3865     1.8364 N.pl3  1 <0>      -0.6000
   21 C21      -0.0294    -4.9528     0.4821 C.3    1 <0>       0.0900
   22 C22       1.1088    -5.9621     0.2928 C.3    1 <0>       0.0500
   23 O23       1.0940    -6.8966     1.3746 O.3    1 <0>      -0.3700
   24 C24       1.3232    -6.3099     2.6580 C.3    1 <0>       0.0500
   25 C25       0.2016    -5.3183     2.9679 C.3    1 <0>       0.0900
   26 N26       0.3141    -2.5100     3.2372 N.ar   1 <0>      -0.5700
   27 C27       0.2979    -1.1957     3.4366 C.ar   1 <0>       0.4400
   28 C28       0.5949    -0.6746     4.7921 C.ar   1 <0>      -0.2200
   29 C29       0.8933    -1.5445     5.8449 C.ar   1 <0>       0.2500
   30 N30       1.1529    -1.0416     7.0383 N.ar   1 <0>      -0.5700
   31 C31       1.1330     0.2680     7.2436 C.ar   1 <0>       0.5800
   32 N32       1.4104     0.7540     8.5076 N.pl3  1 <0>      -0.8100
   33 N33       0.8549     1.1246     6.2709 N.ar   1 <0>      -0.5700
   34 C34       0.5894     0.6996     5.0488 C.ar   1 <0>       0.2500
   35 N35       0.0276    -0.3399     2.4720 N.ar   1 <0>      -0.5300
   36 C36      -0.2438    -0.7650     1.2179 C.ar   1 <0>       0.2200
   37 H37       0.3541     1.8947    -0.1554 H      1 <0>       0.0800
   38 H38      -1.3517     1.8212    -0.6584 H      1 <0>       0.0700
   39 H39      -0.9333     1.8244     1.0717 H      1 <0>       0.0800
   40 H40      -1.7579    -0.8319    -2.9247 H      1 <0>       0.0900
   41 H41      -1.6709     0.8025    -2.2252 H      1 <0>       0.0600
   42 H42       0.7730     1.7814    -2.0216 H      1 <0>       0.0500
   43 H43       1.2536     0.1960    -1.3693 H      1 <0>       0.0900
   44 H44       3.1528     1.4487    -2.4695 H      1 <0>       0.1000
   45 H45       2.8267    -0.1387    -3.2142 H      1 <0>       0.0800
   46 H46       2.3106     1.3613    -7.0840 H      1 <0>       0.0800
   47 H47       2.7554     2.7117    -8.1549 H      1 <0>       0.0700
   48 H48       3.9970     1.9271    -7.1494 H      1 <0>       0.0700
   49 H49       3.3836     4.8465    -7.0436 H      1 <0>       0.3900
   50 H50       0.9303     1.6858    -6.0179 H      1 <0>       0.0900
   51 H51       1.3601     0.0178    -5.5556 H      1 <0>       0.0800
   52 H52      -0.9638     0.4326    -4.9096 H      1 <0>       0.0900
   53 H53      -0.4944     1.9166    -4.0451 H      1 <0>       0.0400
   54 H54      -0.9893    -5.4561     0.3662 H      1 <0>       0.0900
   55 H55       0.0596    -4.1563    -0.2567 H      1 <0>       0.0900
   56 H56       0.9716    -6.4933    -0.6490 H      1 <0>       0.1100
   57 H57       2.0634    -5.4360     0.2793 H      1 <0>       0.0600
   58 H58       1.3402    -7.0914     3.4177 H      1 <0>       0.1100
   59 H59       2.2786    -5.7851     2.6530 H      1 <0>       0.0600
   60 H60       0.4414    -4.7649     3.8758 H      1 <0>       0.1100
   61 H61      -0.7370    -5.8560     3.1022 H      1 <0>       0.0800
   62 H62       0.9110    -2.6125     5.6849 H      1 <0>       0.1800
   63 H63       1.6159     0.1393     9.2293 H      1 <0>       0.4200
   64 H64       1.3995     1.7097     8.6729 H      1 <0>       0.4200
   65 H65       0.3636     1.4031     4.2611 H      1 <0>       0.1800
@<TRIPOS>BOND
   1    1    2 1
   2    1   37 1
   3    1   38 1
   4    1   39 1
   5    2   36 1
   6    2    3 2
   7    3    4 1
   8    3   17 1
   9    4    5 1
  10    4   40 1
  11    4   41 1
  12    5   16 1
  13    5    6 1
  14    6    7 1
  15    6   42 1
  16    6   43 1
  17    7    8 1
  18    7   44 1
  19    7   45 1
  20    8    9 am
  21    8   15 1
  22    9   10 2
  23    9   11 1
  24   11   12 1
  25   11   13 1
  26   11   14 1
  27   13   46 1
  28   13   47 1
  29   13   48 1
  30   14   49 1
  31   15   16 1
  32   15   50 1
  33   15   51 1
  34   16   52 1
  35   16   53 1
  36   17   18 1
  37   18   36 ar
  38   18   19 ar
  39   19   20 1
  40   19   26 ar
  41   20   25 1
  42   20   21 1
  43   21   22 1
  44   21   54 1
  45   21   55 1
  46   22   23 1
  47   22   56 1
  48   22   57 1
  49   23   24 1
  50   24   25 1
  51   24   58 1
  52   24   59 1
  53   25   60 1
  54   25   61 1
  55   26   27 ar
  56   27   28 1
  57   27   35 ar
  58   28   34 ar
  59   28   29 ar
  60   29   30 ar
  61   29   62 1
  62   30   31 ar
  63   31   32 1
  64   31   33 ar
  65   32   63 1
  66   32   64 1
  67   33   34 ar
  68   34   65 1
  69   35   36 ar
