@<TRIPOS>MOLECULE
ZINC000028467946
76    80    1     0     0
SMALL
USER_CHARGES
@<TRIPOS>ATOM
1      C1      1.9390   -1.9275   -1.9872 C.3      1 ZINC000028467946    0.0300
2      O2      0.7286   -1.3763   -2.5099 O.3      1 ZINC000028467946   -0.3100
3      C3     -0.4352   -1.8267   -1.9751 C.ar     1 ZINC000028467946    0.1900
4      C4     -0.4083   -2.6940   -0.8886 C.ar     1 ZINC000028467946   -0.2500
5      C5     -1.5846   -3.1551   -0.3407 C.ar     1 ZINC000028467946    0.0100
6      C6     -2.8091   -2.7512   -0.8763 C.ar     1 ZINC000028467946   -0.1200
7      C7     -4.0723   -3.2433   -0.2910 C.2      1 ZINC000028467946    0.4500
8      N8     -4.3457   -4.5003   -0.1629 N.2      1 ZINC000028467946   -0.5100
9      C9     -5.6697   -4.6714    0.4501 C.3      1 ZINC000028467946    0.1000
10     H10    -6.3379   -5.2034   -0.2271 H        1 ZINC000028467946    0.1200
11     C11    -5.5534   -5.4071    1.7602 C.ar     1 ZINC000028467946   -0.0600
12     C12    -4.4934   -5.1449    2.6081 C.ar     1 ZINC000028467946   -0.0700
13     C13    -4.3862   -5.8193    3.8097 C.ar     1 ZINC000028467946   -0.1100
14     C14    -5.3399   -6.7569    4.1640 C.ar     1 ZINC000028467946   -0.0300
15     Cl15   -5.2062   -7.6039    5.6734 Cl       1 ZINC000028467946   -0.0700
16     C16    -6.4005   -7.0188    3.3151 C.ar     1 ZINC000028467946   -0.1100
17     C17    -6.5097   -6.3397    2.1162 C.ar     1 ZINC000028467946   -0.0900
18     C18    -6.1686   -3.2311    0.6793 C.3      1 ZINC000028467946    0.1300
19     H19    -7.0817   -3.0460    0.1137 H        1 ZINC000028467946    0.1200
20     C20    -6.3934   -2.9738    2.1471 C.ar     1 ZINC000028467946   -0.0900
21     C21    -5.3842   -2.4226    2.9144 C.ar     1 ZINC000028467946   -0.0900
22     C22    -5.5897   -2.1864    4.2606 C.ar     1 ZINC000028467946   -0.1000
23     C23    -6.8058   -2.5017    4.8402 C.ar     1 ZINC000028467946   -0.0300
24     Cl24   -7.0650   -2.2048    6.5308 Cl       1 ZINC000028467946   -0.0600
25     C25    -7.8154   -3.0533    4.0717 C.ar     1 ZINC000028467946   -0.1000
26     C26    -7.6106   -3.2838    2.7244 C.ar     1 ZINC000028467946   -0.1000
27     N27    -5.0612   -2.4035    0.1723 N.am     1 ZINC000028467946   -0.5800
28     C28    -5.0251   -1.0563    0.1562 C.2      1 ZINC000028467946    0.7400
29     O29    -3.9838   -0.4791   -0.0894 O.2      1 ZINC000028467946   -0.5400
30     N30    -6.1433   -0.3491    0.4126 N.am     1 ZINC000028467946   -0.6100
31     C31    -7.3763   -1.0270    0.8368 C.3      1 ZINC000028467946    0.0200
32     C32    -7.8432   -0.4112    2.1616 C.3      1 ZINC000028467946    0.1000
33     N33    -7.8513    1.0518    2.0224 N.am     1 ZINC000028467946   -0.6100
34     C34    -8.9693    1.7592    2.2796 C.2      1 ZINC000028467946    0.5100
35     C35    -8.9953    3.2449    2.0290 C.3      1 ZINC000028467946   -0.1800
36     O36    -9.9545    1.1999    2.7127 O.2      1 ZINC000028467946   -0.5400
37     C37    -6.6183    1.7298    1.5981 C.3      1 ZINC000028467946    0.0900
38     C38    -6.1499    1.1145    0.2787 C.3      1 ZINC000028467946    0.1200
39     C39    -2.8350   -1.8765   -1.9712 C.ar     1 ZINC000028467946    0.2400
40     O40    -4.0213   -1.4793   -2.4974 O.3      1 ZINC000028467946   -0.3000
41     C41    -3.9700   -0.6320   -3.6470 C.3      1 ZINC000028467946    0.0700
42     C42    -3.9751   -1.4901   -4.9137 C.3      1 ZINC000028467946   -0.1800
43     C43    -5.1881    0.2937   -3.6531 C.3      1 ZINC000028467946   -0.1500
44     C44    -1.6468   -1.4154   -2.5110 C.ar     1 ZINC000028467946   -0.2500
45     H45     2.7868   -1.5496   -2.5585 H        1 ZINC000028467946    0.1000
46     H46     2.0478   -1.6391   -0.9417 H        1 ZINC000028467946    0.0600
47     H47     1.9056   -3.0144   -2.0627 H        1 ZINC000028467946    0.0600
48     H48     0.5381   -3.0073   -0.4733 H        1 ZINC000028467946    0.1300
49     H49    -1.5598   -3.8293    0.5027 H        1 ZINC000028467946    0.1300
50     H50    -3.7488   -4.4133    2.3312 H        1 ZINC000028467946    0.1200
51     H51    -3.5579   -5.6147    4.4719 H        1 ZINC000028467946    0.1300
52     H52    -7.1452   -7.7508    3.5910 H        1 ZINC000028467946    0.1300
53     H53    -7.3378   -6.5437    1.4536 H        1 ZINC000028467946    0.1300
54     H54    -4.4348   -2.1769    2.4620 H        1 ZINC000028467946    0.1300
55     H55    -4.8011   -1.7562    4.8601 H        1 ZINC000028467946    0.1300
56     H56    -8.7648   -3.2998    4.5236 H        1 ZINC000028467946    0.1400
57     H57    -8.3988   -3.7140    2.1243 H        1 ZINC000028467946    0.1400
58     H58    -8.1476   -0.8917    0.0786 H        1 ZINC000028467946    0.0700
59     H59    -7.1798   -2.0900    0.9767 H        1 ZINC000028467946    0.1500
60     H60    -8.8487   -0.7621    2.3939 H        1 ZINC000028467946    0.1000
61     H61    -7.1591   -0.6989    2.9600 H        1 ZINC000028467946    0.0800
62     H62    -9.3665    3.4372    1.0223 H        1 ZINC000028467946    0.1000
63     H63    -9.6510    3.7246    2.7557 H        1 ZINC000028467946    0.0900
64     H64    -7.9873    3.6477    2.1277 H        1 ZINC000028467946    0.0800
65     H65    -6.8149    2.7927    1.4582 H        1 ZINC000028467946    0.1000
66     H66    -5.8470    1.5945    2.3563 H        1 ZINC000028467946    0.0800
67     H67    -5.1444    1.4662    0.0476 H        1 ZINC000028467946    0.1100
68     H68    -6.8330    1.4003   -0.5212 H        1 ZINC000028467946    0.0700
69     H69    -3.0592   -0.0338   -3.6170 H        1 ZINC000028467946    0.0800
70     H70    -3.9359   -0.8438   -5.7905 H        1 ZINC000028467946    0.0700
71     H71    -3.1073   -2.1496   -4.9093 H        1 ZINC000028467946    0.0600
72     H72    -4.8858   -2.0882   -4.9436 H        1 ZINC000028467946    0.0700
73     H73    -5.1845    0.9050   -2.7507 H        1 ZINC000028467946    0.0600
74     H74    -5.1489    0.9400   -4.5299 H        1 ZINC000028467946    0.0800
75     H75    -6.0989   -0.3044   -3.6830 H        1 ZINC000028467946    0.0600
76     H76    -1.6629   -0.7411   -3.3545 H        1 ZINC000028467946    0.1400
@<TRIPOS>BOND
1     1     2     1
2     1     45    1
3     1     46    1
4     1     47    1
5     2     3     1
6     3     44    ar
7     3     4     ar
8     4     5     ar
9     4     48    1
10    5     6     ar
11    5     49    1
12    6     7     1
13    6     39    ar
14    7     27    1
15    7     8     2
16    8     9     1
17    9     10    1
18    9     11    1
19    9     18    1
20    11    17    ar
21    11    12    ar
22    12    13    ar
23    12    50    1
24    13    14    ar
25    13    51    1
26    14    15    1
27    14    16    ar
28    16    17    ar
29    16    52    1
30    17    53    1
31    18    19    1
32    18    20    1
33    18    27    1
34    20    26    ar
35    20    21    ar
36    21    22    ar
37    21    54    1
38    22    23    ar
39    22    55    1
40    23    24    1
41    23    25    ar
42    25    26    ar
43    25    56    1
44    26    57    1
45    27    28    am
46    28    29    2
47    28    30    am
48    30    38    1
49    30    31    1
50    31    32    1
51    31    58    1
52    31    59    1
53    32    33    1
54    32    60    1
55    32    61    1
56    33    34    am
57    33    37    1
58    34    35    1
59    34    36    2
60    35    62    1
61    35    63    1
62    35    64    1
63    37    38    1
64    37    65    1
65    37    66    1
66    38    67    1
67    38    68    1
68    39    40    1
69    39    44    ar
70    40    41    1
71    41    42    1
72    41    43    1
73    41    69    1
74    42    70    1
75    42    71    1
76    42    72    1
77    43    73    1
78    43    74    1
79    43    75    1
80    44    76    1
@<TRIPOS>SUBSTRUCTURE
1   ZINC000028467946 1     RESIDUE    1   A     ZIN   1
