@<TRIPOS>MOLECULE
ZINC000043203532
56    60    1     0     0
SMALL
USER_CHARGES
@<TRIPOS>ATOM
1      N1     -0.0168    1.3902    0.0097 N.pl3    1 ZINC000043203532   -0.8500
2      C2      0.0021   -0.0041    0.0020 C.ar     1 ZINC000043203532    0.2800
3      C3     -1.1800   -0.7169    0.1080 C.ar     1 ZINC000043203532   -0.0300
4      F4     -2.3561   -0.0613    0.2185 F        1 ZINC000043203532   -0.1300
5      C5     -1.1575   -2.1092    0.1004 C.ar     1 ZINC000043203532    0.1700
6      N6     -2.3544   -2.8205    0.2037 N.3      1 ZINC000043203532   -0.6200
7      C7     -3.2585   -2.4938   -0.9071 C.3      1 ZINC000043203532    0.0400
8      C8     -4.5563   -3.2906   -0.7596 C.3      1 ZINC000043203532    0.1300
9      N9     -5.4579   -2.9648   -1.8673 N.pl3    1 ZINC000043203532   -0.7200
10     C10    -6.7068   -3.5699   -1.9480 C.ar     1 ZINC000043203532    0.4100
11     C11    -7.0964   -4.4795   -0.9705 C.ar     1 ZINC000043203532   -0.2400
12     C12    -8.3422   -5.0739   -1.0628 C.ar     1 ZINC000043203532   -0.0300
13     C13    -9.1592   -4.7373   -2.1336 C.ar     1 ZINC000043203532   -0.2400
14     C14    -8.7084   -3.8263   -3.0680 C.ar     1 ZINC000043203532    0.1500
15     N15    -7.5171   -3.2711   -2.9518 N.ar     1 ZINC000043203532   -0.5500
16     C16     0.0451   -2.7980   -0.0097 C.ar     1 ZINC000043203532   -0.0300
17     O17     0.0455   -4.1617   -0.0201 O.3      1 ZINC000043203532   -0.3100
18     C18     1.1245   -4.7852   -0.7275 C.3      1 ZINC000043203532    0.0700
19     C19     2.4442   -4.2487   -0.1780 C.3      1 ZINC000043203532    0.1200
20     C20     2.6463   -4.7334    1.2688 C.3      1 ZINC000043203532   -0.1300
21     C21     3.5457   -5.9873    1.1257 C.3      1 ZINC000043203532   -0.1200
22     C22     4.5079   -5.5899   -0.0216 C.3      1 ZINC000043203532   -0.1200
23     C23     3.6205   -4.7922   -1.0010 C.3      1 ZINC000043203532   -0.1400
24     N24     2.4466   -2.7820   -0.2117 N.pl3    1 ZINC000043203532   -0.4900
25     C25     3.6191   -2.1410   -0.3372 C.2      1 ZINC000043203532    0.1500
26     C26     3.7172   -0.7653   -0.3574 C.2      1 ZINC000043203532   -0.2900
27     C27     5.0228   -0.1136   -0.4956 C.2      1 ZINC000043203532    0.5400
28     O28     6.0377   -0.7911   -0.5943 O.co2    1 ZINC000043203532   -0.7000
29     O29     5.0984    1.1082   -0.5122 O.co2    1 ZINC000043203532   -0.6600
30     C30     2.4878    0.0388   -0.2381 C.2      1 ZINC000043203532    0.4300
31     O31     2.5216    1.2574   -0.2425 O.2      1 ZINC000043203532   -0.4600
32     C32     1.2192   -0.6928   -0.1191 C.ar     1 ZINC000043203532   -0.2500
33     C33     1.2443   -2.1003   -0.1125 C.ar     1 ZINC000043203532    0.2100
34     H34     0.7423    1.8874   -0.3330 H        1 ZINC000043203532    0.4200
35     H35    -0.7907    1.8628    0.3540 H        1 ZINC000043203532    0.4000
36     H36    -2.1821   -3.8136    0.2496 H        1 ZINC000043203532    0.3700
37     H37    -3.4832   -1.4273   -0.8910 H        1 ZINC000043203532    0.1000
38     H38    -2.7802   -2.7502   -1.8523 H        1 ZINC000043203532    0.0500
39     H39    -4.3316   -4.3571   -0.7756 H        1 ZINC000043203532    0.0600
40     H40    -5.0346   -3.0342    0.1857 H        1 ZINC000043203532    0.0800
41     H41    -5.1835   -2.3269   -2.5445 H        1 ZINC000043203532    0.4100
42     H42    -6.4352   -4.7187   -0.1507 H        1 ZINC000043203532    0.1300
43     H43    -8.6716   -5.7841   -0.3188 H        1 ZINC000043203532    0.1300
44     H44   -10.1374   -5.1838   -2.2349 H        1 ZINC000043203532    0.1300
45     H45    -9.3407   -3.5616   -3.9026 H        1 ZINC000043203532    0.1500
46     H46     1.0805   -5.8648   -0.5839 H        1 ZINC000043203532    0.1300
47     H47     1.0487   -4.5518   -1.7896 H        1 ZINC000043203532    0.0700
48     H48     3.1491   -3.9687    1.8609 H        1 ZINC000043203532    0.0800
49     H49     1.6901   -4.9990    1.7195 H        1 ZINC000043203532    0.0800
50     H50     4.0986   -6.1731    2.0465 H        1 ZINC000043203532    0.0700
51     H51     2.9523   -6.8584    0.8478 H        1 ZINC000043203532    0.0700
52     H52     5.3156   -4.9639    0.3575 H        1 ZINC000043203532    0.0800
53     H53     4.9092   -6.4790   -0.5081 H        1 ZINC000043203532    0.0700
54     H54     3.2530   -5.4474   -1.7909 H        1 ZINC000043203532    0.0800
55     H55     4.1877   -3.9675   -1.4324 H        1 ZINC000043203532    0.0900
56     H56     4.5225   -2.7261   -0.4258 H        1 ZINC000043203532    0.1700
@<TRIPOS>BOND
1     1     2     1
2     1     34    1
3     1     35    1
4     2     32    ar
5     2     3     ar
6     3     4     1
7     3     5     ar
8     5     6     1
9     5     16    ar
10    6     7     1
11    6     36    1
12    7     8     1
13    7     37    1
14    7     38    1
15    8     9     1
16    8     39    1
17    8     40    1
18    9     10    1
19    9     41    1
20    10    15    ar
21    10    11    ar
22    11    12    ar
23    11    42    1
24    12    13    ar
25    12    43    1
26    13    14    ar
27    13    44    1
28    14    15    ar
29    14    45    1
30    16    33    ar
31    16    17    1
32    17    18    1
33    18    19    1
34    18    46    1
35    18    47    1
36    19    23    1
37    19    20    1
38    19    24    1
39    20    21    1
40    20    48    1
41    20    49    1
42    21    22    1
43    21    50    1
44    21    51    1
45    22    23    1
46    22    52    1
47    22    53    1
48    23    54    1
49    23    55    1
50    24    33    1
51    24    25    1
52    25    26    2
53    25    56    1
54    26    27    1
55    26    30    1
56    27    28    ar
57    27    29    ar
58    30    31    2
59    30    32    1
60    32    33    ar
@<TRIPOS>SUBSTRUCTURE
1   ZINC000043203532 1     RESIDUE    1   A     ZIN   1
