@<TRIPOS>MOLECULE
ZINC000072232826
41    43    1     0     0
SMALL
USER_CHARGES
@<TRIPOS>ATOM
1      C1     -1.3781   -0.5579   -6.3792 C.3      1 ZINC000072232826   -0.1400
2      C2     -1.1211   -1.7006   -5.3949 C.3      1 ZINC000072232826   -0.1100
3      C3     -0.0368   -1.2824   -4.3998 C.3      1 ZINC000072232826   -0.1500
4      C4     -2.3920   -2.0170   -4.6495 C.2      1 ZINC000072232826    0.5100
5      O5     -3.4038   -1.3901   -4.8826 O.2      1 ZINC000072232826   -0.4600
6      N6     -2.4043   -2.9965   -3.7238 N.am     1 ZINC000072232826   -0.6300
7      C7     -3.5750   -3.2879   -3.0372 C.2      1 ZINC000072232826    0.2800
8      N8     -4.7090   -2.6823   -3.2152 N.2      1 ZINC000072232826   -0.4700
9      C9     -5.7238   -3.0820   -2.4803 C.2      1 ZINC000072232826    0.1200
10     C10    -5.4294   -4.0885   -1.6276 C.2      1 ZINC000072232826   -0.2100
11     C11    -6.3651   -4.7313   -0.6897 C.2      1 ZINC000072232826    0.1900
12     C12    -7.6430   -4.3078   -0.3864 C.2      1 ZINC000072232826   -0.2100
13     C13    -8.1752   -5.2011    0.5429 C.2      1 ZINC000072232826    0.0100
14     C14    -9.5518   -5.1190    1.1505 C.3      1 ZINC000072232826    0.3600
15     F15    -9.5275   -5.6693    2.4365 F        1 ZINC000072232826   -0.1900
16     F16    -9.9502   -3.7800    1.2237 F        1 ZINC000072232826   -0.1900
17     N17    -7.2817   -6.1228    0.8004 N.2      1 ZINC000072232826   -0.2200
18     N18    -6.1341   -5.8639    0.0408 N.pl3    1 ZINC000072232826   -0.3200
19     C19    -4.9570   -6.6239    0.0368 C.ar     1 ZINC000072232826    0.1400
20     C20    -4.7955   -7.6528   -0.8830 C.ar     1 ZINC000072232826   -0.0100
21     Cl21   -6.0521   -7.9985   -2.0298 Cl       1 ZINC000072232826   -0.0300
22     C22    -3.6329   -8.4006   -0.8839 C.ar     1 ZINC000072232826   -0.1000
23     C23    -2.6315   -8.1260    0.0292 C.ar     1 ZINC000072232826   -0.0700
24     C24    -2.7889   -7.1032    0.9462 C.ar     1 ZINC000072232826   -0.1000
25     C25    -3.9460   -6.3469    0.9488 C.ar     1 ZINC000072232826   -0.0100
26     Cl26   -4.1425   -5.0629    2.1005 Cl       1 ZINC000072232826   -0.0300
27     S27    -3.7299   -4.5004   -1.8422 S.3      1 ZINC000072232826    0.1500
28     H28    -0.4588   -0.3290   -6.9184 H        1 ZINC000072232826    0.0700
29     H29    -2.1506   -0.8558   -7.0882 H        1 ZINC000072232826    0.0600
30     H30    -1.7080    0.3254   -5.8324 H        1 ZINC000072232826    0.0700
31     H31    -0.7911   -2.5839   -5.9418 H        1 ZINC000072232826    0.1000
32     H32    -0.3667   -0.3991   -3.8529 H        1 ZINC000072232826    0.0600
33     H33     0.1464   -2.0966   -3.6985 H        1 ZINC000072232826    0.0600
34     H34     0.8825   -1.0536   -4.9389 H        1 ZINC000072232826    0.0800
35     H35    -1.5951   -3.4979   -3.5374 H        1 ZINC000072232826    0.4200
36     H36    -6.7081   -2.6432   -2.5518 H        1 ZINC000072232826    0.1900
37     H37    -8.1411   -3.4410   -0.7949 H        1 ZINC000072232826    0.1700
38     H38   -10.2561   -5.6743    0.5310 H        1 ZINC000072232826    0.1400
39     H39    -3.5068   -9.2005   -1.5985 H        1 ZINC000072232826    0.1500
40     H40    -1.7244   -8.7121    0.0263 H        1 ZINC000072232826    0.1600
41     H41    -2.0050   -6.8920    1.6584 H        1 ZINC000072232826    0.1500
@<TRIPOS>BOND
1     1     2     1
2     1     28    1
3     1     29    1
4     1     30    1
5     2     3     1
6     2     4     1
7     2     31    1
8     3     32    1
9     3     33    1
10    3     34    1
11    4     5     2
12    4     6     am
13    6     7     1
14    6     35    1
15    7     27    1
16    7     8     2
17    8     9     1
18    9     10    2
19    9     36    1
20    10    11    1
21    10    27    1
22    11    18    1
23    11    12    2
24    12    13    1
25    12    37    1
26    13    14    1
27    13    17    2
28    14    15    1
29    14    16    1
30    14    38    1
31    17    18    1
32    18    19    1
33    19    25    ar
34    19    20    ar
35    20    21    1
36    20    22    ar
37    22    23    ar
38    22    39    1
39    23    24    ar
40    23    40    1
41    24    25    ar
42    24    41    1
43    25    26    1
@<TRIPOS>SUBSTRUCTURE
1   ZINC000072232826 1     RESIDUE    1   A     ZIN   1
