@<TRIPOS>MOLECULE
ZINC000003941517
56    61    1     0     0
SMALL
USER_CHARGES
@<TRIPOS>ATOM
1      O1     -1.4193   -0.0682   -0.6741 O.co2    1 ZINC000003941517   -0.7000
2      C2     -0.9242    0.9953   -0.3419 C.2      1 ZINC000003941517    0.4700
3      O3      0.2851    1.1442   -0.3835 O.co2    1 ZINC000003941517   -0.6400
4      C4     -1.8076    2.1279    0.1142 C.3      1 ZINC000003941517    0.0400
5      H5     -2.6919    2.1775   -0.5212 H        1 ZINC000003941517    0.0600
6      C6     -2.2342    1.8899    1.5641 C.3      1 ZINC000003941517   -0.0600
7      C7     -3.2144    2.9560    1.9808 C.ar     1 ZINC000003941517   -0.0600
8      C8     -2.7578    4.1321    2.5456 C.ar     1 ZINC000003941517   -0.1000
9      C9     -3.6570    5.1100    2.9279 C.ar     1 ZINC000003941517   -0.1200
10     C10    -5.0128    4.9119    2.7448 C.ar     1 ZINC000003941517   -0.1300
11     C11    -5.4694    3.7361    2.1792 C.ar     1 ZINC000003941517   -0.1300
12     C12    -4.5699    2.7600    1.7930 C.ar     1 ZINC000003941517   -0.1200
13     O13    -1.0876    3.3590    0.0255 O.3      1 ZINC000003941517   -0.3000
14     C14    -1.0928    3.9915   -1.1774 C.ar     1 ZINC000003941517    0.1900
15     C15     0.0599    4.0161   -1.9523 C.ar     1 ZINC000003941517   -0.1000
16     Br16    1.6330    3.1697   -1.3320 Br       1 ZINC000003941517    0.0300
17     C17     0.0582    4.6567   -3.1739 C.ar     1 ZINC000003941517   -0.0500
18     C18    -1.1038    5.2808   -3.6312 C.ar     1 ZINC000003941517   -0.0800
19     C19    -1.1097    5.9683   -4.9407 C.ar     1 ZINC000003941517    0.0600
20     C20    -0.3024    7.1087   -5.1515 C.ar     1 ZINC000003941517   -0.0500
21     C21     0.5188    7.6132   -4.1309 C.ar     1 ZINC000003941517   -0.0800
22     C22     1.2860    8.7135   -4.3641 C.ar     1 ZINC000003941517   -0.1200
23     C23     1.2686    9.3495   -5.6042 C.ar     1 ZINC000003941517   -0.0900
24     C24     0.4848    8.8892   -6.6166 C.ar     1 ZINC000003941517   -0.1200
25     C25    -0.3213    7.7538   -6.4138 C.ar     1 ZINC000003941517    0.0100
26     C26    -1.1386    7.2585   -7.4423 C.ar     1 ZINC000003941517   -0.1000
27     Br27   -1.1625    8.1221   -9.1244 Br       1 ZINC000003941517   -0.0300
28     C28    -1.9243    6.1439   -7.2310 C.ar     1 ZINC000003941517    0.1300
29     C29    -1.9069    5.4946   -5.9802 C.ar     1 ZINC000003941517   -0.1000
30     C30    -2.8465    4.3644   -6.1054 C.ar     1 ZINC000003941517   -0.1200
31     C31    -3.3476    4.4279   -7.4131 C.ar     1 ZINC000003941517    0.0800
32     C32    -4.2702    3.4768   -7.8316 C.ar     1 ZINC000003941517   -0.1200
33     C33    -4.6832    2.4856   -6.9657 C.ar     1 ZINC000003941517   -0.0800
34     C34    -4.1866    2.4256   -5.6734 C.ar     1 ZINC000003941517   -0.1300
35     C35    -3.2692    3.3601   -5.2402 C.ar     1 ZINC000003941517   -0.0500
36     O36    -2.7820    5.4815   -8.0423 O.3      1 ZINC000003941517   -0.1900
37     C37    -2.2602    5.2541   -2.8497 C.ar     1 ZINC000003941517   -0.0500
38     C38    -2.2525    4.6070   -1.6315 C.ar     1 ZINC000003941517   -0.1400
39     Br39   -3.8183    4.5700   -0.5720 Br       1 ZINC000003941517   -0.0100
40     H40    -2.7050    0.9104    1.6483 H        1 ZINC000003941517    0.0900
41     H41    -1.3582    1.9287    2.2116 H        1 ZINC000003941517    0.0800
42     H42    -1.6986    4.2869    2.6886 H        1 ZINC000003941517    0.1200
43     H43    -3.3003    6.0286    3.3698 H        1 ZINC000003941517    0.1100
44     H44    -5.7153    5.6756    3.0441 H        1 ZINC000003941517    0.1100
45     H45    -6.5286    3.5812    2.0365 H        1 ZINC000003941517    0.1100
46     H46    -4.9266    1.8414    1.3511 H        1 ZINC000003941517    0.1200
47     H47     0.9548    4.6757   -3.7757 H        1 ZINC000003941517    0.1400
48     H48     0.5417    7.1308   -3.1649 H        1 ZINC000003941517    0.1400
49     H49     1.9168    9.0992   -3.5768 H        1 ZINC000003941517    0.1300
50     H50     1.8862   10.2210   -5.7638 H        1 ZINC000003941517    0.1300
51     H51     0.4819    9.3926   -7.5720 H        1 ZINC000003941517    0.1400
52     H52    -4.6648    3.5139   -8.8362 H        1 ZINC000003941517    0.1400
53     H53    -5.4006    1.7498   -7.2978 H        1 ZINC000003941517    0.1400
54     H54    -4.5180    1.6453   -5.0043 H        1 ZINC000003941517    0.1400
55     H55    -2.8818    3.3134   -4.2332 H        1 ZINC000003941517    0.1300
56     H56    -3.1609    5.7359   -3.2003 H        1 ZINC000003941517    0.1400
@<TRIPOS>BOND
1     1     2     ar
2     2     3     ar
3     2     4     1
4     4     5     1
5     4     6     1
6     4     13    1
7     6     7     1
8     6     40    1
9     6     41    1
10    7     12    ar
11    7     8     ar
12    8     9     ar
13    8     42    1
14    9     10    ar
15    9     43    1
16    10    11    ar
17    10    44    1
18    11    12    ar
19    11    45    1
20    12    46    1
21    13    14    1
22    14    38    ar
23    14    15    ar
24    15    16    1
25    15    17    ar
26    17    18    ar
27    17    47    1
28    18    19    1
29    18    37    ar
30    19    29    ar
31    19    20    ar
32    20    25    ar
33    20    21    ar
34    21    22    ar
35    21    48    1
36    22    23    ar
37    22    49    1
38    23    24    ar
39    23    50    1
40    24    25    ar
41    24    51    1
42    25    26    ar
43    26    27    1
44    26    28    ar
45    28    36    1
46    28    29    ar
47    29    30    1
48    30    35    ar
49    30    31    ar
50    31    32    ar
51    31    36    1
52    32    33    ar
53    32    52    1
54    33    34    ar
55    33    53    1
56    34    35    ar
57    34    54    1
58    35    55    1
59    37    38    ar
60    37    56    1
61    38    39    1
@<TRIPOS>SUBSTRUCTURE
1   ZINC000003941517 1     RESIDUE    1   A     ZIN   1
