@<TRIPOS>MOLECULE
ZINC000000006846
31    33    1     0     0
SMALL
USER_CHARGES
@<TRIPOS>ATOM
1      O1     -0.0173    1.4248    0.0099 O.3      1 ZINC000000006846   -0.5700
2      C2      0.0021   -0.0041    0.0020 C.3      1 ZINC000000006846    0.1500
3      C3     -1.4117   -0.5257    0.0127 C.2      1 ZINC000000006846   -0.1900
4      C4     -2.1392   -0.7900   -1.0762 C.2      1 ZINC000000006846   -0.1100
5      C5     -3.4120   -1.2605   -0.8317 C.2      1 ZINC000000006846   -0.1100
6      C6     -3.7236   -1.3803    0.4891 C.2      1 ZINC000000006846   -0.1300
7      C7     -5.0086   -1.8568    1.0194 C.2      1 ZINC000000006846    0.0700
8      C8     -5.3332   -1.9756    2.3404 C.2      1 ZINC000000006846   -0.1800
9      C9     -6.6467   -2.4634    2.3971 C.2      1 ZINC000000006846   -0.1800
10     C10    -7.0691   -2.6219    1.1083 C.2      1 ZINC000000006846    0.0700
11     C11    -8.3897   -3.1128    0.6905 C.2      1 ZINC000000006846   -0.1300
12     C12    -8.7992   -3.2724   -0.5991 C.2      1 ZINC000000006846   -0.1100
13     C13   -10.0858   -3.7495   -0.7330 C.2      1 ZINC000000006846   -0.1100
14     C14   -10.7292   -3.9806    0.4148 C.2      1 ZINC000000006846   -0.1900
15     C15   -12.1388   -4.5017    0.5259 C.3      1 ZINC000000006846    0.1500
16     O16   -12.1167   -5.9299    0.5688 O.3      1 ZINC000000006846   -0.5700
17     S17    -9.6867   -3.5938    1.7768 S.3      1 ZINC000000006846    0.1900
18     O18    -6.0701   -2.2457    0.2843 O.3      1 ZINC000000006846   -0.1500
19     S19    -2.3439   -0.8831    1.4600 S.3      1 ZINC000000006846    0.1900
20     H20     0.8606    1.8301    0.0037 H        1 ZINC000000006846    0.3900
21     H21     0.5123   -0.3556   -0.8948 H        1 ZINC000000006846    0.0700
22     H22     0.5293   -0.3651    0.8851 H        1 ZINC000000006846    0.0600
23     H23    -1.7579   -0.6453   -2.0762 H        1 ZINC000000006846    0.1500
24     H24    -4.1043   -1.5126   -1.6214 H        1 ZINC000000006846    0.1500
25     H25    -4.6985   -1.7395    3.1817 H        1 ZINC000000006846    0.1600
26     H26    -7.2159   -2.6741    3.2904 H        1 ZINC000000006846    0.1600
27     H27    -8.1688   -3.0439   -1.4457 H        1 ZINC000000006846    0.1500
28     H28   -10.5411   -3.9236   -1.6968 H        1 ZINC000000006846    0.1500
29     H29   -12.5973   -4.1179    1.4372 H        1 ZINC000000006846    0.0600
30     H30   -12.7168   -4.1731   -0.3378 H        1 ZINC000000006846    0.0700
31     H31   -12.9919   -6.3348    0.6403 H        1 ZINC000000006846    0.3900
@<TRIPOS>BOND
1     1     2     1
2     1     20    1
3     2     3     1
4     2     21    1
5     2     22    1
6     3     19    1
7     3     4     2
8     4     5     1
9     4     23    1
10    5     6     2
11    5     24    1
12    6     7     1
13    6     19    1
14    7     18    1
15    7     8     2
16    8     9     1
17    8     25    1
18    9     10    2
19    9     26    1
20    10    11    1
21    10    18    1
22    11    17    1
23    11    12    2
24    12    13    1
25    12    27    1
26    13    14    2
27    13    28    1
28    14    15    1
29    14    17    1
30    15    16    1
31    15    29    1
32    15    30    1
33    16    31    1
@<TRIPOS>SUBSTRUCTURE
1   ZINC000000006846 1     RESIDUE    1   A     ZIN   1
