@<TRIPOS>MOLECULE
ZINC000004098600
  31   33    0    0    0
SMALL
USER_CHARGES
NO_NAME
@<TRIPOS>ATOM
    1 O1       -0.0189     0.0391     0.4915 O.2    1 <0>      -0.5100
    2 C2       -0.0258     1.2395     0.2710 C.2    1 <0>       0.4000
    3 C3       -1.2832     1.9635     0.0120 C.ar   1 <0>      -0.3500
    4 C4       -2.5120     1.3025     0.0102 C.ar   1 <0>       0.0100
    5 C5       -3.6589     2.0039    -0.2331 C.ar   1 <0>      -0.2600
    6 C6       -3.6077     3.3739    -0.4790 C.ar   1 <0>       0.3200
    7 O7       -4.7556     4.0580    -0.7188 O.3    1 <0>      -0.6900
    8 C8       -2.3957     4.0443    -0.4805 C.ar   1 <0>      -0.2900
    9 C9       -1.2222     3.3461    -0.2352 C.ar   1 <0>       0.1900
   10 O10      -0.0301     3.9777    -0.2311 O.3    1 <0>      -0.2100
   11 C11       1.1247     3.3315     0.0033 C.2    1 <0>       0.1100
   12 C12       2.3832     4.0994    -0.0104 C.ar   1 <0>       0.0000
   13 C13       3.4872     3.6218    -0.7221 C.ar   1 <0>      -0.0900
   14 C14       4.6659     4.3444    -0.7334 C.ar   1 <0>       0.0900
   15 O15       5.7405     3.8806    -1.4261 O.3    1 <0>      -0.4800
   16 C16       4.7538     5.5465    -0.0369 C.ar   1 <0>       0.0600
   17 O17       5.9141     6.2551    -0.0503 O.3    1 <0>      -0.4800
   18 C18       3.6559     6.0248     0.6728 C.ar   1 <0>       0.0900
   19 O19       3.7454     7.1998     1.3517 O.3    1 <0>      -0.4800
   20 C20       2.4729     5.3093     0.6836 C.ar   1 <0>      -0.1100
   21 C21       1.1750     1.9934     0.2597 C.2    1 <0>      -0.0500
   22 O22       2.3695     1.3840     0.4915 O.3    1 <0>      -0.4600
   23 H23      -2.5563     0.2403     0.2000 H      1 <0>       0.1200
   24 H24      -4.6104     1.4931    -0.2351 H      1 <0>       0.1100
   25 H25      -2.3642     5.1067    -0.6724 H      1 <0>       0.1200
   26 H26       3.4198     2.6891    -1.2624 H      1 <0>       0.1500
   27 H27       5.7770     4.1826    -2.3440 H      1 <0>       0.3900
   28 H28       5.9753     6.8960    -0.7718 H      1 <0>       0.3800
   29 H29       3.4970     7.9753     0.8302 H      1 <0>       0.3900
   30 H30       1.6213     5.6811     1.2342 H      1 <0>       0.1400
   31 H31       2.3001     0.4349     0.6630 H      1 <0>       0.4000
@<TRIPOS>BOND
   1    1    2 2
   2    2   21 1
   3    2    3 1
   4    3    9 ar
   5    3    4 ar
   6    4    5 ar
   7    4   23 1
   8    5    6 ar
   9    5   24 1
  10    6    7 1
  11    6    8 ar
  12    8    9 ar
  13    8   25 1
  14    9   10 1
  15   10   11 1
  16   11   12 1
  17   11   21 2
  18   12   20 ar
  19   12   13 ar
  20   13   14 ar
  21   13   26 1
  22   14   15 1
  23   14   16 ar
  24   15   27 1
  25   16   17 1
  26   16   18 ar
  27   17   28 1
  28   18   19 1
  29   18   20 ar
  30   19   29 1
  31   20   30 1
  32   21   22 1
  33   22   31 1
