@<TRIPOS>MOLECULE
ZINC000000057285
32    34    1     0     0
SMALL
USER_CHARGES
@<TRIPOS>ATOM
1      O1     -0.0173    1.4248    0.0099 O.3      1 ZINC000000057285   -0.5600
2      C2      0.0021   -0.0041    0.0020 C.3      1 ZINC000000057285    0.0800
3      C3     -1.4333   -0.5336    0.0129 C.3      1 ZINC000000057285    0.0500
4      H4     -1.9871   -0.1096    0.8505 H        1 ZINC000000057285    0.1000
5      O5     -2.0929   -0.2241   -1.2341 O.3      1 ZINC000000057285   -0.3400
6      C6     -3.1943   -1.1540   -1.3231 C.3      1 ZINC000000057285    0.3100
7      H7     -4.0192   -0.8268   -0.6902 H        1 ZINC000000057285    0.1200
8      N8     -3.6398   -1.2855   -2.7125 N.pl3    1 ZINC000000057285   -0.4700
9      C9     -2.8968   -1.0360   -3.8246 C.2      1 ZINC000000057285    0.3200
10     N10    -3.6049   -1.2550   -4.8938 N.2      1 ZINC000000057285   -0.5000
11     C11    -4.8520   -1.6604   -4.5407 C.ar     1 ZINC000000057285    0.0700
12     C12    -5.9891   -2.0209   -5.2683 C.ar     1 ZINC000000057285   -0.0400
13     C13    -7.1354   -2.3965   -4.6041 C.ar     1 ZINC000000057285   -0.0400
14     Cl14   -8.5477   -2.8448   -5.5087 Cl       1 ZINC000000057285   -0.0400
15     C15    -7.1699   -2.4199   -3.2152 C.ar     1 ZINC000000057285   -0.0200
16     Cl16   -8.6246   -2.8965   -2.3964 Cl       1 ZINC000000057285   -0.0400
17     C17    -6.0553   -2.0673   -2.4828 C.ar     1 ZINC000000057285   -0.0900
18     C18    -4.8902   -1.6915   -3.1364 C.ar     1 ZINC000000057285    0.0700
19     C19    -2.6218   -2.4941   -0.8103 C.3      1 ZINC000000057285    0.0700
20     H20    -3.3710   -3.0321   -0.2294 H        1 ZINC000000057285    0.0900
21     O21    -2.1671   -3.2951   -1.9028 O.3      1 ZINC000000057285   -0.5300
22     C22    -1.4367   -2.0764    0.0918 C.3      1 ZINC000000057285    0.0500
23     H23    -1.6013   -2.4088    1.1167 H        1 ZINC000000057285    0.0900
24     O24    -0.2105   -2.6074   -0.4147 O.3      1 ZINC000000057285   -0.5400
25     H25     0.8606    1.8301    0.0037 H        1 ZINC000000057285    0.3900
26     H26     0.5123   -0.3556   -0.8948 H        1 ZINC000000057285    0.0700
27     H27     0.5293   -0.3651    0.8851 H        1 ZINC000000057285    0.0600
28     H28    -1.8691   -0.7042   -3.8204 H        1 ZINC000000057285    0.2200
29     H29    -5.9691   -2.0045   -6.3480 H        1 ZINC000000057285    0.1500
30     H30    -6.0881   -2.0874   -1.4035 H        1 ZINC000000057285    0.1400
31     H31    -1.7976   -4.1485   -1.6378 H        1 ZINC000000057285    0.3900
32     H32     0.5660   -2.3760    0.1131 H        1 ZINC000000057285    0.3800
@<TRIPOS>BOND
1     1     2     1
2     1     25    1
3     2     3     1
4     2     26    1
5     2     27    1
6     3     4     1
7     3     22    1
8     3     5     1
9     5     6     1
10    6     7     1
11    6     8     1
12    6     19    1
13    8     18    1
14    8     9     1
15    9     10    2
16    9     28    1
17    10    11    1
18    11    18    ar
19    11    12    ar
20    12    13    ar
21    12    29    1
22    13    14    1
23    13    15    ar
24    15    16    1
25    15    17    ar
26    17    18    ar
27    17    30    1
28    19    20    1
29    19    21    1
30    19    22    1
31    21    31    1
32    22    23    1
33    22    24    1
34    24    32    1
@<TRIPOS>SUBSTRUCTURE
1   ZINC000000057285 1     RESIDUE    1   A     ZIN   1
