@<TRIPOS>MOLECULE
ZINC000029464717
76    79    1     0     0
SMALL
USER_CHARGES
@<TRIPOS>ATOM
1      C1     -8.1019   -2.2845   -8.6104 C.3      1 ZINC000029464717   -0.1500
2      C2     -7.3700   -1.3899   -9.6129 C.3      1 ZINC000029464717   -0.0600
3      C3     -7.9861   -1.5700  -11.0018 C.3      1 ZINC000029464717   -0.1500
4      C4     -7.4995    0.0504   -9.1888 C.ar     1 ZINC000029464717   -0.0700
5      C5     -8.7506    0.6243   -9.0643 C.ar     1 ZINC000029464717   -0.1200
6      C6     -8.8694    1.9457   -8.6752 C.ar     1 ZINC000029464717   -0.1200
7      C7     -7.7370    2.6926   -8.4103 C.ar     1 ZINC000029464717   -0.1300
8      C8     -6.4855    2.1182   -8.5340 C.ar     1 ZINC000029464717   -0.0900
9      C9     -6.3669    0.7960   -8.9188 C.ar     1 ZINC000029464717   -0.0800
10     C10    -5.0027    0.1699   -9.0537 C.3      1 ZINC000029464717   -0.0300
11     C11    -4.6249   -0.4954   -7.7554 C.ar     1 ZINC000029464717   -0.1000
12     C12    -4.6978   -1.8646   -7.6407 C.ar     1 ZINC000029464717   -0.0600
13     C13    -4.3479   -2.4862   -6.4372 C.ar     1 ZINC000029464717   -0.1700
14     C14    -4.4252   -3.9517   -6.3124 C.2      1 ZINC000029464717    0.5600
15     O15    -4.1204   -4.4897   -5.2650 O.2      1 ZINC000029464717   -0.4900
16     N16    -4.8336   -4.6965   -7.3587 N.am     1 ZINC000029464717   -0.6700
17     C17    -5.0168   -6.0747   -7.2069 C.ar     1 ZINC000029464717    0.2100
18     C18    -4.7356   -6.9344   -8.2608 C.ar     1 ZINC000029464717   -0.1700
19     C19    -4.9172   -8.2949   -8.1074 C.ar     1 ZINC000029464717   -0.0100
20     C20    -5.3785   -8.8013   -6.9062 C.ar     1 ZINC000029464717   -0.6700
21     S21    -5.6082  -10.5377   -6.7145 S.o2     1 ZINC000029464717    2.5600
22     O22    -6.7390  -10.7020   -5.8698 O.2      1 ZINC000029464717   -0.9400
23     O23    -5.5226  -11.1000   -8.0167 O.2      1 ZINC000029464717   -0.9100
24     C24    -4.2224  -11.1511   -5.8156 C.ar     1 ZINC000029464717   -0.6500
25     C25    -4.1181  -10.9116   -4.4584 C.ar     1 ZINC000029464717   -0.0200
26     C26    -3.0307  -11.3929   -3.7530 C.ar     1 ZINC000029464717   -0.1500
27     C27    -2.0482  -12.1139   -4.4051 C.ar     1 ZINC000029464717   -0.0600
28     C28    -2.1530  -12.3543   -5.7625 C.ar     1 ZINC000029464717   -0.1400
29     C29    -3.2422  -11.8768   -6.4668 C.ar     1 ZINC000029464717    0.0300
30     C30    -3.3565  -12.1388   -7.9465 C.3      1 ZINC000029464717   -0.0400
31     C31    -2.1476  -12.9510   -8.4154 C.3      1 ZINC000029464717   -0.1400
32     C32    -4.6389  -12.9243   -8.2278 C.3      1 ZINC000029464717   -0.0900
33     C33    -3.3988  -10.8070   -8.6984 C.3      1 ZINC000029464717   -0.1300
34     C34    -5.6594   -7.9480   -5.8549 C.ar     1 ZINC000029464717    0.0000
35     C35    -5.4750   -6.5870   -6.0000 C.ar     1 ZINC000029464717   -0.1400
36     C36    -3.9228   -1.7088   -5.3503 C.ar     1 ZINC000029464717    0.1600
37     O37    -3.5810   -2.3039   -4.1789 O.3      1 ZINC000029464717   -0.4600
38     C38    -3.8526   -0.3284   -5.4773 C.ar     1 ZINC000029464717    0.0500
39     O39    -3.4405    0.4320   -4.4263 O.3      1 ZINC000029464717   -0.4700
40     C40    -4.1985    0.2766   -6.6801 C.ar     1 ZINC000029464717    0.1400
41     O41    -4.1292    1.6275   -6.8024 O.3      1 ZINC000029464717   -0.4700
42     H42    -8.0083   -3.3262   -8.9172 H        1 ZINC000029464717    0.0600
43     H43    -7.6630   -2.1562   -7.6210 H        1 ZINC000029464717    0.0600
44     H44    -9.1559   -2.0083   -8.5790 H        1 ZINC000029464717    0.0600
45     H45    -6.3160   -1.6661   -9.6443 H        1 ZINC000029464717    0.0800
46     H46    -9.0582   -1.3798  -10.9511 H        1 ZINC000029464717    0.0600
47     H47    -7.5252   -0.8687  -11.6974 H        1 ZINC000029464717    0.0600
48     H48    -7.8138   -2.5896  -11.3462 H        1 ZINC000029464717    0.0600
49     H49    -9.6354    0.0407   -9.2712 H        1 ZINC000029464717    0.1200
50     H50    -9.8470    2.3943   -8.5786 H        1 ZINC000029464717    0.1200
51     H51    -7.8297    3.7250   -8.1071 H        1 ZINC000029464717    0.1200
52     H52    -5.6006    2.7019   -8.3274 H        1 ZINC000029464717    0.1300
53     H53    -5.0212   -0.5732   -9.8509 H        1 ZINC000029464717    0.0900
54     H54    -4.2709    0.9414   -9.2930 H        1 ZINC000029464717    0.0900
55     H55    -5.0256   -2.4599   -8.4801 H        1 ZINC000029464717    0.1400
56     H56    -5.0004   -4.2767   -8.2171 H        1 ZINC000029464717    0.4100
57     H57    -4.3756   -6.5395   -9.1993 H        1 ZINC000029464717    0.1400
58     H58    -4.6990   -8.9640   -8.9267 H        1 ZINC000029464717    0.1600
59     H59    -4.8858  -10.3482   -3.9489 H        1 ZINC000029464717    0.1400
60     H60    -2.9489  -11.2052   -2.6926 H        1 ZINC000029464717    0.1300
61     H61    -1.1985  -12.4893   -3.8542 H        1 ZINC000029464717    0.1300
62     H62    -1.3851  -12.9174   -6.2721 H        1 ZINC000029464717    0.1400
63     H63    -2.1174  -13.8998   -7.8797 H        1 ZINC000029464717    0.0600
64     H64    -2.2303  -13.1405   -9.4856 H        1 ZINC000029464717    0.0700
65     H65    -1.2340  -12.3914   -8.2150 H        1 ZINC000029464717    0.0600
66     H66    -5.3773  -12.7024   -7.4573 H        1 ZINC000029464717    0.0400
67     H67    -5.0338  -12.6383   -9.2027 H        1 ZINC000029464717    0.0800
68     H68    -4.4193  -13.9920   -8.2238 H        1 ZINC000029464717    0.0300
69     H69    -2.4022  -10.5671   -9.0690 H        1 ZINC000029464717    0.0500
70     H70    -4.0895  -10.8856   -9.5380 H        1 ZINC000029464717    0.0900
71     H71    -3.7349  -10.0195   -8.0240 H        1 ZINC000029464717    0.0400
72     H72    -6.0199   -8.3467   -4.9181 H        1 ZINC000029464717    0.1400
73     H73    -5.6946   -5.9211   -5.1786 H        1 ZINC000029464717    0.1500
74     H74    -2.6463   -2.5440   -4.1179 H        1 ZINC000029464717    0.4000
75     H75    -2.4858    0.5836   -4.4011 H        1 ZINC000029464717    0.3900
76     H76    -3.2511    1.9565   -7.0387 H        1 ZINC000029464717    0.3900
@<TRIPOS>BOND
1     1     2     1
2     1     42    1
3     1     43    1
4     1     44    1
5     2     3     1
6     2     4     1
7     2     45    1
8     3     46    1
9     3     47    1
10    3     48    1
11    4     9     ar
12    4     5     ar
13    5     6     ar
14    5     49    1
15    6     7     ar
16    6     50    1
17    7     8     ar
18    7     51    1
19    8     9     ar
20    8     52    1
21    9     10    1
22    10    11    1
23    10    53    1
24    10    54    1
25    11    40    ar
26    11    12    ar
27    12    13    ar
28    12    55    1
29    13    14    1
30    13    36    ar
31    14    15    2
32    14    16    am
33    16    17    1
34    16    56    1
35    17    35    ar
36    17    18    ar
37    18    19    ar
38    18    57    1
39    19    20    ar
40    19    58    1
41    20    21    1
42    20    34    ar
43    21    22    2
44    21    23    2
45    21    24    1
46    24    29    ar
47    24    25    ar
48    25    26    ar
49    25    59    1
50    26    27    ar
51    26    60    1
52    27    28    ar
53    27    61    1
54    28    29    ar
55    28    62    1
56    29    30    1
57    30    31    1
58    30    32    1
59    30    33    1
60    31    63    1
61    31    64    1
62    31    65    1
63    32    66    1
64    32    67    1
65    32    68    1
66    33    69    1
67    33    70    1
68    33    71    1
69    34    35    ar
70    34    72    1
71    35    73    1
72    36    37    1
73    36    38    ar
74    37    74    1
75    38    39    1
76    38    40    ar
77    39    75    1
78    40    41    1
79    41    76    1
@<TRIPOS>SUBSTRUCTURE
1   ZINC000029464717 1     RESIDUE    1   A     ZIN   1
