@<TRIPOS>MOLECULE
ZINC000015940464
  50   53    0    0    0
SMALL
USER_CHARGES
NO_NAME
@<TRIPOS>ATOM
    1 C1       -0.0184     1.5028     0.0103 C.3    1 <0>      -0.0800
    2 C2        0.0021    -0.0041     0.0020 C.2    1 <0>      -0.0100
    3 C3       -1.0783    -0.8055     0.0027 C.2    1 <0>      -0.2200
    4 C4       -0.6011    -2.1363    -0.0068 C.2    1 <0>      -0.1800
    5 C5        0.7423    -2.0686    -0.0126 C.2    1 <0>      -0.0500
    6 C6        1.6840    -3.2450    -0.0241 C.3    1 <0>       0.2000
    7 N7        1.9828    -3.6179    -1.4090 N.am   1 <0>      -0.6100
    8 C8        3.1226    -3.0116    -2.1012 C.3    1 <0>       0.0700
    9 C9        1.2089    -4.5188    -2.0462 C.2    1 <0>       0.5200
   10 O10       0.2653    -5.0208    -1.4731 O.2    1 <0>      -0.5400
   11 C11       1.5162    -4.9024    -3.4708 C.3    1 <0>      -0.1200
   12 C12       0.4941    -5.9337    -3.9531 C.3    1 <0>      -0.0700
   13 C13       0.8014    -6.3173    -5.3777 C.2    1 <0>       0.4500
   14 N14       1.8253    -5.7656    -5.9674 N.2    1 <0>      -0.5800
   15 C15       2.1492    -6.0667    -7.2355 C.2    1 <0>       0.5400
   16 O16       3.1108    -5.5417    -7.7736 O.2    1 <0>      -0.4800
   17 C17       1.3192    -7.0464    -7.9662 C.2    1 <0>      -0.2200
   18 C18       0.2480    -7.5986    -7.2911 C.2    1 <0>       0.0500
   19 N19       0.0135    -7.2169    -5.9867 N.pl3  1 <0>      -0.5900
   20 S20      -0.5941    -8.7281    -8.3376 S.3    1 <0>       0.1700
   21 C21       0.5139    -8.4344    -9.6678 C.2    1 <0>      -0.2000
   22 C22       1.4481    -7.5433    -9.3291 C.2    1 <0>      -0.0300
   23 C23       2.5493    -7.0840   -10.2758 C.3    1 <0>      -0.0600
   24 C24       2.6588    -8.0838   -11.4283 C.3    1 <0>      -0.1200
   25 C25       1.2677    -8.3144   -12.0265 C.3    1 <0>      -0.1200
   26 C26       0.4220    -9.1065   -11.0261 C.3    1 <0>      -0.0400
   27 O27       1.1020    -0.7746    -0.0131 O.3    1 <0>      -0.1700
   28 H28       1.0042     1.8801     0.0026 H      1 <0>       0.0800
   29 H29      -0.5455     1.8639    -0.8728 H      1 <0>       0.0900
   30 H30      -0.5286     1.8543     0.9071 H      1 <0>       0.0900
   31 H31      -2.1119    -0.4924     0.0097 H      1 <0>       0.1500
   32 H32      -1.2002    -3.0349    -0.0086 H      1 <0>       0.1500
   33 H33       2.6083    -2.9756     0.4871 H      1 <0>       0.1000
   34 H34       1.2186    -4.0879     0.4868 H      1 <0>       0.1200
   35 H35       4.0124    -3.6196    -1.9378 H      1 <0>       0.0700
   36 H36       2.9116    -2.9562    -3.1692 H      1 <0>       0.0800
   37 H37       3.2920    -2.0077    -1.7118 H      1 <0>       0.0700
   38 H38       1.4658    -4.0170    -4.1044 H      1 <0>       0.1100
   39 H39       2.5172    -5.3307    -3.5239 H      1 <0>       0.1100
   40 H40       0.5445    -6.8191    -3.3194 H      1 <0>       0.1100
   41 H41      -0.5069    -5.5054    -3.9000 H      1 <0>       0.1100
   42 H42      -0.7365    -7.5990    -5.5047 H      1 <0>       0.4200
   43 H43       2.3041    -6.0977   -10.6699 H      1 <0>       0.0800
   44 H44       3.4971    -7.0397    -9.7394 H      1 <0>       0.0900
   45 H45       3.3234    -7.6849   -12.1947 H      1 <0>       0.0700
   46 H46       3.0561    -9.0277   -11.0553 H      1 <0>       0.0700
   47 H47       0.7926    -7.3540   -12.2264 H      1 <0>       0.0700
   48 H48       1.3586    -8.8786   -12.9547 H      1 <0>       0.0800
   49 H49       0.7995   -10.1266   -10.9556 H      1 <0>       0.0800
   50 H50      -0.6165    -9.1212   -11.3568 H      1 <0>       0.0800
@<TRIPOS>BOND
   1    1    2 1
   2    1   28 1
   3    1   29 1
   4    1   30 1
   5    2   27 1
   6    2    3 2
   7    3    4 1
   8    3   31 1
   9    4    5 2
  10    4   32 1
  11    5    6 1
  12    5   27 1
  13    6    7 1
  14    6   33 1
  15    6   34 1
  16    7    8 1
  17    7    9 am
  18    8   35 1
  19    8   36 1
  20    8   37 1
  21    9   10 2
  22    9   11 1
  23   11   12 1
  24   11   38 1
  25   11   39 1
  26   12   13 1
  27   12   40 1
  28   12   41 1
  29   13   19 1
  30   13   14 2
  31   14   15 1
  32   15   16 2
  33   15   17 1
  34   17   22 1
  35   17   18 2
  36   18   19 1
  37   18   20 1
  38   19   42 1
  39   20   21 1
  40   21   26 1
  41   21   22 2
  42   22   23 1
  43   23   24 1
  44   23   43 1
  45   23   44 1
  46   24   25 1
  47   24   45 1
  48   24   46 1
  49   25   26 1
  50   25   47 1
  51   25   48 1
  52   26   49 1
  53   26   50 1
