@<TRIPOS>MOLECULE
ZINC000017653967
96    97    1     0     0
SMALL
USER_CHARGES
@<TRIPOS>ATOM
1      C1      1.5955    1.6485    1.2037 C.3      1 ZINC000017653967   -0.1300
2      C2      1.6148    0.1419    1.2285 C.2      1 ZINC000017653967   -0.0900
3      C3      1.6122   -0.5371    2.4503 C.2      1 ZINC000017653967   -0.1000
4      C4      1.5919    0.1724    3.6342 C.2      1 ZINC000017653967   -0.1300
5      C5      1.5893   -0.5066    4.8560 C.2      1 ZINC000017653967   -0.1000
6      C6      1.5690    0.2030    6.0399 C.2      1 ZINC000017653967   -0.1000
7      C7      1.5497    1.7097    6.0151 C.3      1 ZINC000017653967   -0.1300
8      C8      1.5664   -0.4760    7.2617 C.2      1 ZINC000017653967   -0.0700
9      C9      1.5461    0.2335    8.4456 C.2      1 ZINC000017653967   -0.1500
10     C10     1.4279   -0.4422    9.6635 C.2      1 ZINC000017653967    0.0200
11     C11     0.3543   -1.2772    9.8758 C.2      1 ZINC000017653967   -0.2100
12     C12    -0.6731   -1.4488    8.7868 C.3      1 ZINC000017653967   -0.1100
13     C13     0.1974   -1.9679   11.0770 C.2      1 ZINC000017653967    0.3600
14     O14    -0.7634   -2.6977   11.2310 O.2      1 ZINC000017653967   -0.4600
15     C15     1.2066   -1.8192   12.1856 C.3      1 ZINC000017653967    0.0600
16     H16     1.9809   -2.5786   12.0772 H        1 ZINC000017653967    0.0900
17     O17     0.5558   -1.9779   13.4479 O.3      1 ZINC000017653967   -0.5500
18     C18     1.8408   -0.4274   12.1074 C.3      1 ZINC000017653967   -0.1000
19     C19     2.4801   -0.2522   10.7241 C.3      1 ZINC000017653967   -0.0400
20     C20     3.5930   -1.2861   10.5415 C.3      1 ZINC000017653967   -0.1400
21     C21     3.0670    1.1560   10.6077 C.3      1 ZINC000017653967   -0.1400
22     C22     1.6351   -0.5677    0.0446 C.2      1 ZINC000017653967   -0.1200
23     C23     1.6377    0.1113   -1.1772 C.2      1 ZINC000017653967   -0.1200
24     C24     1.6580   -0.5983   -2.3611 C.2      1 ZINC000017653967   -0.1200
25     C25     1.6607    0.0807   -3.5829 C.2      1 ZINC000017653967   -0.1200
26     C26     1.6809   -0.6288   -4.7668 C.2      1 ZINC000017653967   -0.0900
27     C27     1.7002   -2.1355   -4.7420 C.3      1 ZINC000017653967   -0.1300
28     C28     1.6836    0.0502   -5.9886 C.2      1 ZINC000017653967   -0.1000
29     C29     1.7038   -0.6594   -7.1725 C.2      1 ZINC000017653967   -0.1300
30     C30     1.7065    0.0196   -8.3943 C.2      1 ZINC000017653967   -0.1000
31     C31     1.7268   -0.6900   -9.5782 C.2      1 ZINC000017653967   -0.1000
32     C32     1.7461   -2.1966   -9.5533 C.3      1 ZINC000017653967   -0.1300
33     C33     1.7294   -0.0110  -10.8000 C.2      1 ZINC000017653967   -0.0700
34     C34     1.7497   -0.7205  -11.9839 C.2      1 ZINC000017653967   -0.1500
35     C35     1.6369   -0.0478  -13.2039 C.2      1 ZINC000017653967    0.0200
36     C36     0.5461    0.7591  -13.4365 C.2      1 ZINC000017653967   -0.2100
37     C37    -0.5056    0.9039  -12.3670 C.3      1 ZINC000017653967   -0.1100
38     C38     0.3939    1.4458  -14.6406 C.2      1 ZINC000017653967    0.3600
39     O39    -0.5824    2.1506  -14.8127 O.2      1 ZINC000017653967   -0.4600
40     C40     1.4272    1.3236  -15.7301 C.3      1 ZINC000017653967    0.0600
41     H41     2.1794    2.1029  -15.6074 H        1 ZINC000017653967    0.0900
42     O42     0.7962    1.4657  -17.0043 O.3      1 ZINC000017653967   -0.5500
43     C43     2.0956   -0.0513  -15.6396 C.3      1 ZINC000017653967   -0.1000
44     C44     2.7132   -0.2102  -14.2446 C.3      1 ZINC000017653967   -0.0400
45     C45     3.7954    0.8522  -14.0415 C.3      1 ZINC000017653967   -0.1400
46     C46     3.3341   -1.6027  -14.1169 C.3      1 ZINC000017653967   -0.1400
47     H47     2.6184    2.0251    1.2073 H        1 ZINC000017653967    0.0700
48     H48     1.0856    1.9906    0.3031 H        1 ZINC000017653967    0.0700
49     H49     1.0686    2.0197    2.0827 H        1 ZINC000017653967    0.0700
50     H50     1.6260   -1.6169    2.4681 H        1 ZINC000017653967    0.1200
51     H51     1.5781    1.2522    3.6164 H        1 ZINC000017653967    0.1200
52     H52     1.6031   -1.5863    4.8738 H        1 ZINC000017653967    0.1200
53     H53     0.5175    2.0596    5.9995 H        1 ZINC000017653967    0.0700
54     H54     2.0503    2.0941    6.9037 H        1 ZINC000017653967    0.0700
55     H55     2.0673    2.0650    5.1241 H        1 ZINC000017653967    0.0700
56     H56     1.5802   -1.5558    7.2795 H        1 ZINC000017653967    0.1200
57     H57     1.6215    1.3108    8.4308 H        1 ZINC000017653967    0.1400
58     H58    -0.3835   -2.2783    8.1416 H        1 ZINC000017653967    0.0700
59     H59    -1.6449   -1.6583    9.2338 H        1 ZINC000017653967    0.0700
60     H60    -0.7339   -0.5341    8.1972 H        1 ZINC000017653967    0.0700
61     H61     0.1286   -2.8375   13.5648 H        1 ZINC000017653967    0.3900
62     H62     1.0735    0.3322   12.2572 H        1 ZINC000017653967    0.0800
63     H63     2.6065   -0.3315   12.8771 H        1 ZINC000017653967    0.0900
64     H64     3.1743   -2.2891   10.6237 H        1 ZINC000017653967    0.0600
65     H65     4.0471   -1.1614    9.5585 H        1 ZINC000017653967    0.0700
66     H66     4.3506   -1.1443   11.3123 H        1 ZINC000017653967    0.0700
67     H67     3.8722    1.2750   11.3326 H        1 ZINC000017653967    0.0700
68     H68     3.4591    1.3042    9.6015 H        1 ZINC000017653967    0.0700
69     H69     2.2877    1.8919   10.8060 H        1 ZINC000017653967    0.0600
70     H70     1.6489   -1.6475    0.0624 H        1 ZINC000017653967    0.1200
71     H71     1.6239    1.1911   -1.1950 H        1 ZINC000017653967    0.1200
72     H72     1.6719   -1.6780   -2.3433 H        1 ZINC000017653967    0.1200
73     H73     1.6468    1.1605   -3.6007 H        1 ZINC000017653967    0.1200
74     H74     0.6774   -2.5121   -4.7456 H        1 ZINC000017653967    0.0700
75     H75     2.2272   -2.5066   -5.6210 H        1 ZINC000017653967    0.0700
76     H76     2.2101   -2.4776   -3.8413 H        1 ZINC000017653967    0.0700
77     H77     1.6697    1.1299   -6.0064 H        1 ZINC000017653967    0.1200
78     H78     1.7177   -1.7392   -7.1547 H        1 ZINC000017653967    0.1200
79     H79     1.6927    1.0994   -8.4121 H        1 ZINC000017653967    0.1200
80     H80     0.7232   -2.5732   -9.5570 H        1 ZINC000017653967    0.0700
81     H81     2.2730   -2.5678  -10.4324 H        1 ZINC000017653967    0.0700
82     H82     2.2560   -2.5387   -8.6527 H        1 ZINC000017653967    0.0700
83     H83     1.7156    1.0688  -10.8178 H        1 ZINC000017653967    0.1200
84     H84     1.8527   -1.7955  -11.9674 H        1 ZINC000017653967    0.1400
85     H85    -0.2498    1.7404  -11.7167 H        1 ZINC000017653967    0.0700
86     H86    -1.4739    1.0882  -12.8321 H        1 ZINC000017653967    0.0700
87     H87    -0.5537   -0.0123  -11.7784 H        1 ZINC000017653967    0.0700
88     H88     0.3491    2.3140  -17.1295 H        1 ZINC000017653967    0.3900
89     H89     1.3512   -0.8304  -15.8036 H        1 ZINC000017653967    0.0800
90     H90     2.8778   -0.1271  -16.3949 H        1 ZINC000017653967    0.0900
91     H91     3.3524    1.8440  -14.1318 H        1 ZINC000017653967    0.0600
92     H92     4.2341    0.7390  -13.0501 H        1 ZINC000017653967    0.0700
93     H93     4.5707    0.7303  -14.7980 H        1 ZINC000017653967    0.0700
94     H94     4.1556   -1.7007  -14.8266 H        1 ZINC000017653967    0.0700
95     H95     3.7110   -1.7409  -13.1035 H        1 ZINC000017653967    0.0700
96     H96     2.5781   -2.3585  -14.3296 H        1 ZINC000017653967    0.0600
@<TRIPOS>BOND
1     1     2     1
2     1     47    1
3     1     48    1
4     1     49    1
5     2     3     1
6     2     22    2
7     3     4     2
8     3     50    1
9     4     5     1
10    4     51    1
11    5     6     2
12    5     52    1
13    6     7     1
14    6     8     1
15    7     53    1
16    7     54    1
17    7     55    1
18    8     9     2
19    8     56    1
20    9     10    1
21    9     57    1
22    10    19    1
23    10    11    2
24    11    12    1
25    11    13    1
26    12    58    1
27    12    59    1
28    12    60    1
29    13    14    2
30    13    15    1
31    15    16    1
32    15    17    1
33    15    18    1
34    17    61    1
35    18    19    1
36    18    62    1
37    18    63    1
38    19    20    1
39    19    21    1
40    20    64    1
41    20    65    1
42    20    66    1
43    21    67    1
44    21    68    1
45    21    69    1
46    22    23    1
47    22    70    1
48    23    24    2
49    23    71    1
50    24    25    1
51    24    72    1
52    25    26    2
53    25    73    1
54    26    27    1
55    26    28    1
56    27    74    1
57    27    75    1
58    27    76    1
59    28    29    2
60    28    77    1
61    29    30    1
62    29    78    1
63    30    31    2
64    30    79    1
65    31    32    1
66    31    33    1
67    32    80    1
68    32    81    1
69    32    82    1
70    33    34    2
71    33    83    1
72    34    35    1
73    34    84    1
74    35    44    1
75    35    36    2
76    36    37    1
77    36    38    1
78    37    85    1
79    37    86    1
80    37    87    1
81    38    39    2
82    38    40    1
83    40    41    1
84    40    42    1
85    40    43    1
86    42    88    1
87    43    44    1
88    43    89    1
89    43    90    1
90    44    45    1
91    44    46    1
92    45    91    1
93    45    92    1
94    45    93    1
95    46    94    1
96    46    95    1
97    46    96    1
@<TRIPOS>SUBSTRUCTURE
1   ZINC000017653967 1     RESIDUE    1   A     ZIN   1
