@<TRIPOS>MOLECULE
ZINC000000041257
30    32    1     0     0
SMALL
USER_CHARGES
@<TRIPOS>ATOM
1      N1      0.3500    1.2852    0.6367 N.pl3    1 ZINC000000041257   -0.7300
2      C2      0.1839   -0.0486    0.3174 C.2      1 ZINC000000041257    0.3800
3      N3     -0.8850   -0.7885    0.5148 N.2      1 ZINC000000041257   -0.5300
4      C4     -0.8186   -2.0473    0.1279 C.2      1 ZINC000000041257    0.4800
5      C5     -1.9654   -2.9689    0.3025 C.ar     1 ZINC000000041257   -0.1000
6      C6     -1.7437   -4.3185    0.5750 C.ar     1 ZINC000000041257   -0.0700
7      C7     -2.8159   -5.1719    0.7370 C.ar     1 ZINC000000041257   -0.1200
8      C8     -4.1086   -4.6911    0.6296 C.ar     1 ZINC000000041257   -0.0600
9      C9     -4.3348   -3.3534    0.3590 C.ar     1 ZINC000000041257   -0.1200
10     C10    -3.2709   -2.4891    0.2006 C.ar     1 ZINC000000041257   -0.0400
11     N11     0.3095   -2.4524   -0.4208 N.2      1 ZINC000000041257   -0.4700
12     C12     0.5974   -3.7083   -0.8918 C.ar     1 ZINC000000041257    0.0600
13     C13    -0.2236   -4.3023   -1.8518 C.ar     1 ZINC000000041257   -0.0700
14     C14     0.0718   -5.5653   -2.3215 C.ar     1 ZINC000000041257   -0.1000
15     C15     1.1791   -6.2432   -1.8431 C.ar     1 ZINC000000041257   -0.0700
16     C16     1.9970   -5.6602   -0.8915 C.ar     1 ZINC000000041257   -0.1000
17     C17     1.7159   -4.3956   -0.4172 C.ar     1 ZINC000000041257   -0.0900
18     S18     1.3303   -1.0940   -0.4306 S.3      1 ZINC000000041257    0.4200
19     H19     1.1885    1.7307    0.4380 H        1 ZINC000000041257    0.4400
20     H20    -0.3732    1.7773    1.0559 H        1 ZINC000000041257    0.4400
21     H21    -0.7350   -4.6951    0.6587 H        1 ZINC000000041257    0.1300
22     H22    -2.6455   -6.2174    0.9477 H        1 ZINC000000041257    0.1400
23     H23    -4.9446   -5.3628    0.7572 H        1 ZINC000000041257    0.1400
24     H24    -5.3463   -2.9839    0.2759 H        1 ZINC000000041257    0.1400
25     H25    -3.4487   -1.4449   -0.0103 H        1 ZINC000000041257    0.1400
26     H26    -1.0884   -3.7743   -2.2258 H        1 ZINC000000041257    0.1400
27     H27    -0.5628   -6.0261   -3.0641 H        1 ZINC000000041257    0.1500
28     H28     1.4057   -7.2319   -2.2139 H        1 ZINC000000041257    0.1500
29     H29     2.8595   -6.1948   -0.5219 H        1 ZINC000000041257    0.1500
30     H30     2.3551   -3.9416    0.3255 H        1 ZINC000000041257    0.1400
@<TRIPOS>BOND
1     1     2     1
2     1     19    1
3     1     20    1
4     2     18    1
5     2     3     2
6     3     4     1
7     4     5     1
8     4     11    2
9     5     10    ar
10    5     6     ar
11    6     7     ar
12    6     21    1
13    7     8     ar
14    7     22    1
15    8     9     ar
16    8     23    1
17    9     10    ar
18    9     24    1
19    10    25    1
20    11    12    1
21    11    18    1
22    12    17    ar
23    12    13    ar
24    13    14    ar
25    13    26    1
26    14    15    ar
27    14    27    1
28    15    16    ar
29    15    28    1
30    16    17    ar
31    16    29    1
32    17    30    1
@<TRIPOS>SUBSTRUCTURE
1   ZINC000000041257 1     RESIDUE    1   A     ZIN   1
