@<TRIPOS>MOLECULE
ZINC000000968326
  44   46    0    0    0
SMALL
USER_CHARGES
NO_NAME
@<TRIPOS>ATOM
    1 C1       -0.0187     1.5258     0.0104 C.3    1 <0>      -0.1500
    2 C2        0.0021    -0.0041     0.0020 C.3    1 <0>      -0.0800
    3 C3        0.7074    -0.4901    -1.2379 C.ar   1 <0>      -0.1400
    4 C4       -0.0040    -0.7218    -2.4049 C.ar   1 <0>      -0.0700
    5 C5        0.6868    -1.1681    -3.5214 C.ar   1 <0>      -0.1600
    6 C6        2.0517    -1.3655    -3.4343 C.ar   1 <0>       0.1300
    7 C7        2.8127    -1.8498    -4.6415 C.3    1 <0>      -0.0700
    8 C8        3.9559    -0.8799    -4.9467 C.3    1 <0>       0.0700
    9 O9        4.6775    -1.3391    -6.0914 O.3    1 <0>      -0.3200
   10 C10       5.7325    -0.5855    -6.4988 C.ar   1 <0>       0.1200
   11 C11       6.0699     0.5690    -5.8075 C.ar   1 <0>      -0.2100
   12 C12       7.1431     1.3330    -6.2234 C.ar   1 <0>      -0.0500
   13 C13       7.8805     0.9482    -7.3279 C.ar   1 <0>      -0.1100
   14 C14       9.0504     1.7838    -7.7796 C.3    1 <0>      -0.0400
   15 C15      10.3226     1.3003    -7.0805 C.3    1 <0>      -0.0900
   16 H16      10.4661     0.2317    -7.2402 H      1 <0>       0.1100
   17 S17      10.2647     1.6843    -5.2976 S.3    1 <0>      -0.3900
   18 C18      11.6908     2.7364    -5.3431 C.2    1 <0>       0.5800
   19 O19      12.1779     3.3259    -4.3979 O.2    1 <0>      -0.5100
   20 N20      12.1335     2.7648    -6.6019 N.pl3  1 <0>      -0.7200
   21 C21      11.5268     2.0798    -7.5619 C.2    1 <0>       0.5200
   22 O22      11.9013     2.0821    -8.7150 O.2    1 <0>      -0.5400
   23 C23       7.5465    -0.2023    -8.0183 C.ar   1 <0>      -0.0800
   24 C24       6.4775    -0.9726    -7.6033 C.ar   1 <0>      -0.1500
   25 N25       2.6962    -1.1347    -2.3070 N.ar   1 <0>      -0.4800
   26 C26       2.0729    -0.7049    -1.2275 C.ar   1 <0>       0.1100
   27 H27       1.0039     1.9031     0.0027 H      1 <0>       0.0600
   28 H28      -0.5459     1.8868    -0.8726 H      1 <0>       0.0600
   29 H29      -0.5289     1.8773     0.9072 H      1 <0>       0.0600
   30 H30       0.5293    -0.3651     0.8851 H      1 <0>       0.0800
   31 H31      -1.0205    -0.3814     0.0098 H      1 <0>       0.0700
   32 H32      -1.0709    -0.5590    -2.4435 H      1 <0>       0.1300
   33 H33       0.1647    -1.3592    -4.4472 H      1 <0>       0.1400
   34 H34       3.2206    -2.8405    -4.4406 H      1 <0>       0.0900
   35 H35       2.1408    -1.9005    -5.4983 H      1 <0>       0.0900
   36 H36       3.5480     0.1108    -5.1476 H      1 <0>       0.0600
   37 H37       4.6278    -0.8292    -4.0899 H      1 <0>       0.0700
   38 H38       5.4938     0.8704    -4.9452 H      1 <0>       0.1200
   39 H39       7.4061     2.2319    -5.6855 H      1 <0>       0.1300
   40 H40       9.1701     1.6880    -8.8588 H      1 <0>       0.0900
   41 H41       8.8706     2.8283    -7.5253 H      1 <0>       0.0800
   42 H42       8.1243    -0.5010    -8.8805 H      1 <0>       0.1300
   43 H43       6.2171    -1.8711    -8.1429 H      1 <0>       0.1300
   44 H44       2.6343    -0.5269    -0.3223 H      1 <0>       0.1600
@<TRIPOS>BOND
   1    1    2 1
   2    1   27 1
   3    1   28 1
   4    1   29 1
   5    2    3 1
   6    2   30 1
   7    2   31 1
   8    3   26 ar
   9    3    4 ar
  10    4    5 ar
  11    4   32 1
  12    5    6 ar
  13    5   33 1
  14    6    7 1
  15    6   25 ar
  16    7    8 1
  17    7   34 1
  18    7   35 1
  19    8    9 1
  20    8   36 1
  21    8   37 1
  22    9   10 1
  23   10   24 ar
  24   10   11 ar
  25   11   12 ar
  26   11   38 1
  27   12   13 ar
  28   12   39 1
  29   13   14 1
  30   13   23 ar
  31   14   15 1
  32   14   40 1
  33   14   41 1
  34   15   16 1
  35   15   21 1
  36   15   17 1
  37   17   18 1
  38   18   19 2
  39   18   20 1
  40   20   21 1
  41   21   22 2
  42   23   24 ar
  43   23   42 1
  44   24   43 1
  45   25   26 ar
  46   26   44 1
