@<TRIPOS>MOLECULE
ZINC000028821265
37    40    1     0     0
SMALL
USER_CHARGES
@<TRIPOS>ATOM
1      O1      0.0804   -0.0077    0.5951 O.2      1 ZINC000028821265   -0.4600
2      C2      0.0569    1.2123    0.5763 C.2      1 ZINC000028821265    0.5500
3      N3     -1.0320    1.9054    0.8273 N.2      1 ZINC000028821265   -0.6400
4      C4     -1.0070    3.2174    0.7949 C.2      1 ZINC000028821265    0.4700
5      N5     -2.0610    4.0578    1.0348 N.pl3    1 ZINC000028821265   -0.6400
6      C6     -3.3771    3.5062    1.3659 C.3      1 ZINC000028821265    0.2000
7      C7     -4.3543    4.6329    1.5815 C.2      1 ZINC000028821265   -0.2300
8      C8     -5.1145    5.1835    0.6337 C.2      1 ZINC000028821265   -0.1000
9      C9     -5.9387    6.2071    1.0684 C.2      1 ZINC000028821265   -0.1400
10     C10    -5.8480    6.4878    2.3693 C.2      1 ZINC000028821265   -0.2000
11     S11    -4.6725    5.4182    3.1229 S.3      1 ZINC000028821265    0.1300
12     S12     0.6494    3.6954    0.3824 S.3      1 ZINC000028821265   -0.0200
13     C13     1.2482    2.0269    0.2768 C.2      1 ZINC000028821265   -0.2500
14     C14     2.5026    1.6026   -0.0167 C.2      1 ZINC000028821265    0.0600
15     C15     3.5967    2.5751   -0.1408 C.ar     1 ZINC000028821265   -0.0900
16     C16     4.7548    2.2385   -0.8696 C.ar     1 ZINC000028821265   -0.0700
17     C17     5.7774    3.1202   -0.9981 C.ar     1 ZINC000028821265   -0.0900
18     C18     5.6944    4.3922   -0.4002 C.ar     1 ZINC000028821265    0.1400
19     N19     6.6942    5.2707   -0.5188 N.ar     1 ZINC000028821265   -0.4800
20     C20     6.6293    6.4586    0.0328 C.ar     1 ZINC000028821265    0.1400
21     C21     5.5191    6.8660    0.7693 C.ar     1 ZINC000028821265   -0.1700
22     C22     4.4607    6.0182    0.9307 C.ar     1 ZINC000028821265   -0.0500
23     C23     4.5337    4.7425    0.3360 C.ar     1 ZINC000028821265   -0.1000
24     C24     3.4824    3.8249    0.4563 C.ar     1 ZINC000028821265   -0.0700
25     H25    -1.9362    5.0185    0.9855 H        1 ZINC000028821265    0.4300
26     H26    -3.7237    2.8764    0.5466 H        1 ZINC000028821265    0.1000
27     H27    -3.3030    2.9105    2.2757 H        1 ZINC000028821265    0.0900
28     H28    -5.0885    4.8557   -0.3950 H        1 ZINC000028821265    0.1500
29     H29    -6.6046    6.7384    0.4046 H        1 ZINC000028821265    0.1500
30     H30    -6.4126    7.2524    2.8821 H        1 ZINC000028821265    0.1700
31     H31     2.6971    0.5498   -0.1590 H        1 ZINC000028821265    0.1600
32     H32     4.8293    1.2653   -1.3317 H        1 ZINC000028821265    0.1400
33     H33     6.6577    2.8457   -1.5603 H        1 ZINC000028821265    0.1400
34     H34     7.4591    7.1394   -0.0867 H        1 ZINC000028821265    0.1600
35     H35     5.4957    7.8507    1.2122 H        1 ZINC000028821265    0.1400
36     H36     3.5916    6.3171    1.4980 H        1 ZINC000028821265    0.1400
37     H37     2.5933    4.0844    1.0117 H        1 ZINC000028821265    0.1400
@<TRIPOS>BOND
1     1     2     2
2     2     13    1
3     2     3     1
4     3     4     2
5     4     5     1
6     4     12    1
7     5     6     1
8     5     25    1
9     6     7     1
10    6     26    1
11    6     27    1
12    7     11    1
13    7     8     2
14    8     9     1
15    8     28    1
16    9     10    2
17    9     29    1
18    10    11    1
19    10    30    1
20    12    13    1
21    13    14    2
22    14    15    1
23    14    31    1
24    15    24    ar
25    15    16    ar
26    16    17    ar
27    16    32    1
28    17    18    ar
29    17    33    1
30    18    23    ar
31    18    19    ar
32    19    20    ar
33    20    21    ar
34    20    34    1
35    21    22    ar
36    21    35    1
37    22    23    ar
38    22    36    1
39    23    24    ar
40    24    37    1
@<TRIPOS>SUBSTRUCTURE
1   ZINC000028821265 1     RESIDUE    1   A     ZIN   1
