@<TRIPOS>MOLECULE
ZINC000003872206
30    32    1     0     0
SMALL
USER_CHARGES
@<TRIPOS>ATOM
1      C1     -0.0173    1.4248    0.0099 C.3      1 ZINC000003872206    0.0500
2      O2      0.0021   -0.0041    0.0020 O.3      1 ZINC000003872206   -0.3300
3      C3      0.6231   -0.6156    1.0369 C.ar     1 ZINC000003872206    0.2600
4      C4      1.9957   -0.9126    0.9626 C.ar     1 ZINC000003872206   -0.3600
5      C5      2.7599   -0.5590   -0.2381 C.2      1 ZINC000003872206    0.3800
6      O6      3.9439   -0.8157   -0.3010 O.2      1 ZINC000003872206   -0.4600
7      C7      2.6331   -1.5477    2.0400 C.ar     1 ZINC000003872206    0.3300
8      O8      3.9547   -1.8340    1.9689 O.3      1 ZINC000003872206   -0.6300
9      C9      1.9107   -1.8839    3.1818 C.ar     1 ZINC000003872206   -0.1700
10     C10     0.5567   -1.5936    3.2618 C.ar     1 ZINC000003872206   -0.0600
11     C11    -0.0947   -0.9510    2.1887 C.ar     1 ZINC000003872206   -0.3100
12     C12    -1.5328   -0.6464    2.2844 C.2      1 ZINC000003872206    0.4400
13     O13    -2.1606   -0.3290    1.2927 O.2      1 ZINC000003872206   -0.4600
14     C14    -2.2057   -0.7312    3.5995 C.ar     1 ZINC000003872206   -0.1000
15     C15    -3.4690   -0.1815    3.7845 C.ar     1 ZINC000003872206   -0.0800
16     C16    -4.0841   -0.2704    5.0220 C.ar     1 ZINC000003872206   -0.1100
17     C17    -3.4508   -0.9025    6.0761 C.ar     1 ZINC000003872206   -0.1100
18     C18    -2.1925   -1.4551    5.9092 C.ar     1 ZINC000003872206   -0.0700
19     C19    -1.5604   -1.3739    4.6727 C.ar     1 ZINC000003872206   -0.1200
20     C20    -0.2144   -1.9502    4.4770 C.2      1 ZINC000003872206    0.4400
21     O21     0.2540   -2.7118    5.2993 O.2      1 ZINC000003872206   -0.4400
22     H22     1.0053    1.8021    0.0021 H        1 ZINC000003872206    0.0400
23     H23    -0.5445    1.7859   -0.8732 H        1 ZINC000003872206    0.0900
24     H24    -0.5275    1.7763    0.9067 H        1 ZINC000003872206    0.0400
25     H25     2.2686   -0.0701   -1.0663 H        1 ZINC000003872206    0.0700
26     H26     2.4061   -2.3726    4.0077 H        1 ZINC000003872206    0.1300
27     H27    -3.9693    0.3138    2.9655 H        1 ZINC000003872206    0.1400
28     H28    -5.0654    0.1574    5.1649 H        1 ZINC000003872206    0.1300
29     H29    -3.9410   -0.9653    7.0364 H        1 ZINC000003872206    0.1300
30     H30    -1.7031   -1.9476    6.7364 H        1 ZINC000003872206    0.1400
@<TRIPOS>BOND
1     1     2     1
2     1     22    1
3     1     23    1
4     1     24    1
5     2     3     1
6     3     11    ar
7     3     4     ar
8     4     5     1
9     4     7     ar
10    5     6     2
11    5     25    1
12    7     8     1
13    7     9     ar
14    9     10    ar
15    9     26    1
16    10    20    1
17    10    11    ar
18    11    12    1
19    12    13    2
20    12    14    1
21    14    19    ar
22    14    15    ar
23    15    16    ar
24    15    27    1
25    16    17    ar
26    16    28    1
27    17    18    ar
28    17    29    1
29    18    19    ar
30    18    30    1
31    19    20    1
32    20    21    2
@<TRIPOS>SUBSTRUCTURE
1   ZINC000003872206 1     RESIDUE    1   A     ZIN   1
