@<TRIPOS>MOLECULE
ZINC000043587118
87    91    1     0     0
SMALL
USER_CHARGES
@<TRIPOS>ATOM
1      C1      0.2543    0.3745   -1.6134 C.3      1 ZINC000043587118   -0.1500
2      C2      0.2539   -1.1059   -1.3316 C.2      1 ZINC000043587118    0.4500
3      O3      0.3415   -1.5044   -0.1943 O.2      1 ZINC000043587118   -0.5000
4      O4      0.1563   -1.9818   -2.3440 O.3      1 ZINC000043587118   -0.3500
5      C5      0.1623   -3.3953   -1.9977 C.3      1 ZINC000043587118    0.1100
6      H6      0.7566   -3.5268   -1.0873 H        1 ZINC000043587118    0.0900
7      C7     -1.2658   -3.8553   -1.7289 C.3      1 ZINC000043587118    0.0900
8      H8     -1.9007   -3.6344   -2.5836 H        1 ZINC000043587118    0.0700
9      O9     -1.7817   -3.1350   -0.5974 O.3      1 ZINC000043587118   -0.5600
10     C10    -1.2825   -5.3477   -1.4064 C.3      1 ZINC000043587118   -0.1400
11     C11    -0.7792   -6.1440   -2.6227 C.3      1 ZINC000043587118   -0.0300
12     C12    -1.7620   -5.9301   -3.7669 C.3      1 ZINC000043587118   -0.1600
13     C13     0.6291   -5.6759   -2.9669 C.3      1 ZINC000043587118   -0.0600
14     H14     1.2703   -5.9778   -2.0970 H        1 ZINC000043587118    0.0600
15     C15     1.1510   -6.4843   -4.1543 C.3      1 ZINC000043587118   -0.1100
16     C16     1.3394   -7.9346   -3.6821 C.3      1 ZINC000043587118   -0.1100
17     C17     0.0225   -8.5227   -3.1913 C.3      1 ZINC000043587118   -0.0300
18     C18    -0.8707   -8.8018   -4.4119 C.3      1 ZINC000043587118   -0.1300
19     C19    -0.6999   -7.6157   -2.2102 C.3      1 ZINC000043587118   -0.0500
20     H20    -0.1364   -7.6126   -1.2513 H        1 ZINC000043587118    0.0600
21     C21    -2.0819   -8.1811   -1.8952 C.3      1 ZINC000043587118   -0.0600
22     C22    -2.0085   -9.6564   -1.6458 C.2      1 ZINC000043587118   -0.2100
23     C23    -0.9816  -10.4218   -1.9204 C.2      1 ZINC000043587118   -0.0100
24     C24    -1.1680  -11.8981   -1.6387 C.3      1 ZINC000043587118    0.0000
25     H25    -2.2671  -12.0928   -1.6440 H        1 ZINC000043587118    0.0600
26     C26    -0.6495  -12.2983   -0.2696 C.3      1 ZINC000043587118    0.1600
27     C27    -1.4020  -11.5360    0.8278 C.3      1 ZINC000043587118   -0.1800
28     O28     0.7467  -12.0605   -0.1217 O.3      1 ZINC000043587118   -0.5400
29     C29    -0.8906  -13.8013   -0.0546 C.3      1 ZINC000043587118   -0.1200
30     H30    -1.9514  -14.0147   -0.1494 H        1 ZINC000043587118    0.0700
31     C31    -0.3951  -14.1982    1.3363 C.3      1 ZINC000043587118   -0.1500
32     C32    -0.1000  -14.5661   -1.1189 C.3      1 ZINC000043587118   -0.1100
33     C33    -0.6537  -14.2171   -2.4975 C.3      1 ZINC000043587118   -0.0900
34     C34    -0.5671  -12.7173   -2.7726 C.3      1 ZINC000043587118   -0.1100
35     C35    -1.3818  -12.4548   -4.0278 C.2      1 ZINC000043587118    0.4900
36     O36    -1.9415  -13.3775   -4.5953 O.co2    1 ZINC000043587118   -0.7100
37     O37    -1.4758  -11.3216   -4.4677 O.co2    1 ZINC000043587118   -0.6700
38     C38     0.8751  -12.2964   -3.0259 C.3      1 ZINC000043587118   -0.0800
39     C39     0.9530  -10.8405   -3.4825 C.3      1 ZINC000043587118   -0.0900
40     C40     0.2836   -9.8831   -2.5125 C.3      1 ZINC000043587118    0.0300
41     C41     1.2729   -9.6324   -1.3643 C.3      1 ZINC000043587118   -0.1600
42     C42     0.8157   -4.1865   -3.1317 C.3      1 ZINC000043587118   -0.0400
43     C43     0.3175   -3.6689   -4.4803 C.3      1 ZINC000043587118   -0.1500
44     C44     2.3313   -3.8766   -3.0574 C.3      1 ZINC000043587118   -0.1500
45     H45     1.2784    0.7151   -1.7660 H        1 ZINC000043587118    0.1000
46     H46    -0.3323    0.5738   -2.5103 H        1 ZINC000043587118    0.0900
47     H47    -0.1830    0.9055   -0.7679 H        1 ZINC000043587118    0.1000
48     H48    -2.6892   -3.3713   -0.3613 H        1 ZINC000043587118    0.3700
49     H49    -0.6330   -5.5487   -0.5554 H        1 ZINC000043587118    0.0700
50     H50    -2.3001   -5.6614   -1.1758 H        1 ZINC000043587118    0.0700
51     H51    -1.9422   -4.8629   -3.8964 H        1 ZINC000043587118    0.0500
52     H52    -1.3451   -6.3423   -4.6858 H        1 ZINC000043587118    0.0700
53     H53    -2.7019   -6.4320   -3.5372 H        1 ZINC000043587118    0.0600
54     H54     0.4718   -6.4531   -4.9956 H        1 ZINC000043587118    0.0700
55     H55     2.1246   -6.1051   -4.4702 H        1 ZINC000043587118    0.0600
56     H56     1.7077   -8.5242   -4.5270 H        1 ZINC000043587118    0.0600
57     H57     2.1002   -7.9222   -2.9043 H        1 ZINC000043587118    0.0600
58     H58    -0.4077   -9.5684   -5.0332 H        1 ZINC000043587118    0.0700
59     H59    -1.8479   -9.1481   -4.0754 H        1 ZINC000043587118    0.0700
60     H60    -0.9895   -7.8867   -4.9920 H        1 ZINC000043587118    0.0300
61     H61    -2.4654   -7.6990   -0.9843 H        1 ZINC000043587118    0.0500
62     H62    -2.7910   -7.9950   -2.6975 H        1 ZINC000043587118    0.0700
63     H63    -2.8776  -10.1392   -1.2123 H        1 ZINC000043587118    0.0800
64     H64    -2.4652  -11.7684    0.7679 H        1 ZINC000043587118    0.0600
65     H65    -1.0195  -11.8332    1.8043 H        1 ZINC000043587118    0.0500
66     H66    -1.2561  -10.4644    0.6912 H        1 ZINC000043587118    0.0700
67     H67     1.0984  -12.3087    0.7442 H        1 ZINC000043587118    0.3600
68     H68    -0.9380  -13.6296    2.0914 H        1 ZINC000043587118    0.0500
69     H69    -0.5646  -15.2636    1.4922 H        1 ZINC000043587118    0.0500
70     H70     0.6707  -13.9842    1.4171 H        1 ZINC000043587118    0.0500
71     H71     0.9527  -14.2998   -1.0624 H        1 ZINC000043587118    0.0600
72     H72    -0.2084  -15.6393   -0.9451 H        1 ZINC000043587118    0.0500
73     H73    -0.0866  -14.7544   -3.2617 H        1 ZINC000043587118    0.0500
74     H74    -1.6984  -14.5299   -2.5574 H        1 ZINC000043587118    0.0600
75     H75     1.4828  -12.4508   -2.1426 H        1 ZINC000043587118    0.0600
76     H76     1.2844  -12.9306   -3.8272 H        1 ZINC000043587118    0.0300
77     H77     2.0304  -10.5738   -3.5285 H        1 ZINC000043587118    0.0200
78     H78     0.5843  -10.7583   -4.4964 H        1 ZINC000043587118    0.0900
79     H79     2.1179   -9.0510   -1.7332 H        1 ZINC000043587118    0.0400
80     H80     0.7729   -9.0816   -0.5677 H        1 ZINC000043587118    0.0400
81     H81     1.6299  -10.5869   -0.9774 H        1 ZINC000043587118    0.0900
82     H82    -0.7332   -3.9313   -4.6046 H        1 ZINC000043587118    0.0600
83     H83     0.4280   -2.5851   -4.5169 H        1 ZINC000043587118    0.0600
84     H84     0.9021   -4.1210   -5.2815 H        1 ZINC000043587118    0.0600
85     H85     2.8506   -4.4092   -3.8541 H        1 ZINC000043587118    0.0600
86     H86     2.4891   -2.8044   -3.1743 H        1 ZINC000043587118    0.0600
87     H87     2.7210   -4.1979   -2.0914 H        1 ZINC000043587118    0.0500
@<TRIPOS>BOND
1     1     2     1
2     1     45    1
3     1     46    1
4     1     47    1
5     2     3     2
6     2     4     1
7     4     5     1
8     5     6     1
9     5     42    1
10    5     7     1
11    7     8     1
12    7     9     1
13    7     10    1
14    9     48    1
15    10    11    1
16    10    49    1
17    10    50    1
18    11    19    1
19    11    12    1
20    11    13    1
21    12    51    1
22    12    52    1
23    12    53    1
24    13    14    1
25    13    15    1
26    13    42    1
27    15    16    1
28    15    54    1
29    15    55    1
30    16    17    1
31    16    56    1
32    16    57    1
33    17    40    1
34    17    18    1
35    17    19    1
36    18    58    1
37    18    59    1
38    18    60    1
39    19    20    1
40    19    21    1
41    21    22    1
42    21    61    1
43    21    62    1
44    22    23    2
45    22    63    1
46    23    40    1
47    23    24    1
48    24    25    1
49    24    34    1
50    24    26    1
51    26    27    1
52    26    28    1
53    26    29    1
54    27    64    1
55    27    65    1
56    27    66    1
57    28    67    1
58    29    30    1
59    29    31    1
60    29    32    1
61    31    68    1
62    31    69    1
63    31    70    1
64    32    33    1
65    32    71    1
66    32    72    1
67    33    34    1
68    33    73    1
69    33    74    1
70    34    35    1
71    34    38    1
72    35    36    ar
73    35    37    ar
74    38    39    1
75    38    75    1
76    38    76    1
77    39    40    1
78    39    77    1
79    39    78    1
80    40    41    1
81    41    79    1
82    41    80    1
83    41    81    1
84    42    43    1
85    42    44    1
86    43    82    1
87    43    83    1
88    43    84    1
89    44    85    1
90    44    86    1
91    44    87    1
@<TRIPOS>SUBSTRUCTURE
1   ZINC000043587118 1     RESIDUE    1   A     ZIN   1
