@<TRIPOS>MOLECULE
ZINC000001532777
18    18    1     0     0
SMALL
USER_CHARGES
@<TRIPOS>ATOM
1      O1      0.0021   -0.0041    0.0020 O.2      1 ZINC000001532777   -0.4700
2      C2     -0.0144    1.2102    0.0087 C.2      1 ZINC000001532777    0.3600
3      C3      1.1972    1.9319    0.0010 C.2      1 ZINC000001532777   -0.2600
4      C4      1.1788    3.2853    0.0084 C.2      1 ZINC000001532777   -0.0100
5      C5      2.4420    4.0377    0.0004 C.ar     1 ZINC000001532777   -0.0900
6      C6      3.6652    3.3584   -0.0207 C.ar     1 ZINC000001532777   -0.1000
7      C7      4.8451    4.0714   -0.0280 C.ar     1 ZINC000001532777   -0.1200
8      C8      4.8220    5.4553   -0.0141 C.ar     1 ZINC000001532777   -0.1000
9      C9      3.6163    6.1349    0.0072 C.ar     1 ZINC000001532777   -0.1200
10     C10     2.4273    5.4369    0.0081 C.ar     1 ZINC000001532777   -0.0900
11     H11    -0.9569    1.7374    0.0160 H        1 ZINC000001532777    0.0900
12     H12     2.1397    1.4046   -0.0108 H        1 ZINC000001532777    0.1300
13     H13     0.2363    3.8125    0.0203 H        1 ZINC000001532777    0.1300
14     H14     3.6849    2.2786   -0.0308 H        1 ZINC000001532777    0.1300
15     H15     5.7901    3.5487   -0.0443 H        1 ZINC000001532777    0.1300
16     H16     5.7499    6.0080   -0.0196 H        1 ZINC000001532777    0.1300
17     H17     3.6068    7.2148    0.0187 H        1 ZINC000001532777    0.1300
18     H18     1.4874    5.9685    0.0244 H        1 ZINC000001532777    0.1300
@<TRIPOS>BOND
1     1     2     2
2     2     3     1
3     2     11    1
4     3     4     2
5     3     12    1
6     4     5     1
7     4     13    1
8     5     10    ar
9     5     6     ar
10    6     7     ar
11    6     14    1
12    7     8     ar
13    7     15    1
14    8     9     ar
15    8     16    1
16    9     10    ar
17    9     17    1
18    10    18    1
@<TRIPOS>SUBSTRUCTURE
1   ZINC000001532777 1     RESIDUE    1   A     ZIN   1
