@<TRIPOS>MOLECULE
ZINC000023247873
47    49    1     0     0
SMALL
USER_CHARGES
@<TRIPOS>ATOM
1      C1      1.4759   -2.8684    2.2053 C.3      1 ZINC000023247873   -0.0500
2      N2      0.7576   -2.2095    1.1063 N.4      1 ZINC000023247873   -0.3800
3      H3      0.6354   -1.2316    1.3229 H        1 ZINC000023247873    0.4300
4      C4      1.5322   -2.3431   -0.1347 C.3      1 ZINC000023247873   -0.0500
5      C5     -0.5575   -2.8406    0.9330 C.3      1 ZINC000023247873   -0.0600
6      C6     -1.3545   -2.0762   -0.1259 C.3      1 ZINC000023247873    0.0300
7      N7     -2.7152   -2.6242   -0.2049 N.3      1 ZINC000023247873   -0.5100
8      C8     -2.6881   -4.0544   -0.5390 C.3      1 ZINC000023247873    0.1200
9      C9     -2.1477   -4.2343   -1.9342 C.2      1 ZINC000023247873   -0.1900
10     C10    -0.8618   -4.4059   -2.2445 C.2      1 ZINC000023247873   -0.1400
11     C11    -0.6023   -4.5508   -3.5965 C.2      1 ZINC000023247873   -0.1500
12     C12    -1.6775   -4.4968   -4.3841 C.2      1 ZINC000023247873   -0.2000
13     S13    -3.1167   -4.2575   -3.4018 S.3      1 ZINC000023247873    0.1600
14     C14    -3.4507   -2.3893    1.0448 C.3      1 ZINC000023247873    0.0800
15     C15    -3.8170   -0.9310    1.1456 C.ar     1 ZINC000023247873   -0.0200
16     C16    -4.8549   -0.3902    0.3640 C.ar     1 ZINC000023247873   -0.0700
17     C17    -5.5844   -1.1860   -0.5340 C.ar     1 ZINC000023247873   -0.0800
18     C18    -6.5823   -0.6252   -1.2728 C.ar     1 ZINC000023247873   -0.0300
19     Cl19   -7.4841   -1.6098   -2.3824 Cl       1 ZINC000023247873   -0.0500
20     C20    -6.8889    0.7298   -1.1489 C.ar     1 ZINC000023247873   -0.0900
21     C21    -6.2020    1.5290   -0.2885 C.ar     1 ZINC000023247873   -0.0800
22     C22    -5.1651    0.9867    0.4913 C.ar     1 ZINC000023247873    0.1300
23     N23    -4.4738    1.7478    1.3451 N.ar     1 ZINC000023247873   -0.4600
24     C24    -3.5063    1.2474    2.0749 C.ar     1 ZINC000023247873    0.1300
25     C25    -3.1545   -0.0984    2.0024 C.ar     1 ZINC000023247873   -0.1800
26     H26     2.4518   -2.4000    2.3339 H        1 ZINC000023247873    0.1300
27     H27     0.9011   -2.7692    3.1261 H        1 ZINC000023247873    0.1200
28     H28     1.6079   -3.9248    1.9714 H        1 ZINC000023247873    0.1200
29     H29     1.6642   -3.3995   -0.3686 H        1 ZINC000023247873    0.1200
30     H30     0.9992   -1.8542   -0.9501 H        1 ZINC000023247873    0.1300
31     H31     2.5080   -1.8748   -0.0061 H        1 ZINC000023247873    0.1300
32     H32    -0.4252   -3.8740    0.6124 H        1 ZINC000023247873    0.1300
33     H33    -1.0979   -2.8202    1.8794 H        1 ZINC000023247873    0.1300
34     H34    -1.4027   -1.0219    0.1464 H        1 ZINC000023247873    0.1000
35     H35    -0.8645   -2.1793   -1.0941 H        1 ZINC000023247873    0.1100
36     H36    -2.0483   -4.5809    0.1691 H        1 ZINC000023247873    0.0600
37     H37    -3.6988   -4.4591   -0.4860 H        1 ZINC000023247873    0.1000
38     H38    -0.0821   -4.4296   -1.4976 H        1 ZINC000023247873    0.1200
39     H39     0.3951   -4.6961   -3.9843 H        1 ZINC000023247873    0.1400
40     H40    -1.6664   -4.5895   -5.4601 H        1 ZINC000023247873    0.1700
41     H41    -4.3582   -2.9931    1.0513 H        1 ZINC000023247873    0.1100
42     H42    -2.8241   -2.6660    1.8927 H        1 ZINC000023247873    0.0600
43     H43    -5.3556   -2.2363   -0.6386 H        1 ZINC000023247873    0.1400
44     H44    -7.6841    1.1514   -1.7457 H        1 ZINC000023247873    0.1500
45     H45    -6.4519    2.5764   -0.2049 H        1 ZINC000023247873    0.1500
46     H46    -2.9709    1.8949    2.7534 H        1 ZINC000023247873    0.1600
47     H47    -2.3527   -0.4813    2.6164 H        1 ZINC000023247873    0.1300
@<TRIPOS>BOND
1     1     2     1
2     1     26    1
3     1     27    1
4     1     28    1
5     2     3     1
6     2     4     1
7     2     5     1
8     4     29    1
9     4     30    1
10    4     31    1
11    5     6     1
12    5     32    1
13    5     33    1
14    6     7     1
15    6     34    1
16    6     35    1
17    7     8     1
18    7     14    1
19    8     9     1
20    8     36    1
21    8     37    1
22    9     13    1
23    9     10    2
24    10    11    1
25    10    38    1
26    11    12    2
27    11    39    1
28    12    13    1
29    12    40    1
30    14    15    1
31    14    41    1
32    14    42    1
33    15    25    ar
34    15    16    ar
35    16    22    ar
36    16    17    ar
37    17    18    ar
38    17    43    1
39    18    19    1
40    18    20    ar
41    20    21    ar
42    20    44    1
43    21    22    ar
44    21    45    1
45    22    23    ar
46    23    24    ar
47    24    25    ar
48    24    46    1
49    25    47    1
@<TRIPOS>SUBSTRUCTURE
1   ZINC000023247873 1     RESIDUE    1   A     ZIN   1
