@<TRIPOS>MOLECULE
ZINC000064744190
36    39    1     0     0
SMALL
USER_CHARGES
@<TRIPOS>ATOM
1      C1     -0.0184    1.5028    0.0103 C.3      1 ZINC000064744190   -0.0900
2      C2      0.0021   -0.0041    0.0020 C.ar     1 ZINC000064744190    0.4400
3      N3      0.0056   -0.6567   -1.1467 N.ar     1 ZINC000064744190   -0.6100
4      C4      0.0241   -1.9876   -1.1572 C.ar     1 ZINC000064744190    0.6300
5      N5      0.0282   -2.6692   -2.3571 N.pl3    1 ZINC000064744190   -0.7900
6      N6      0.0390   -2.6589   -0.0106 N.ar     1 ZINC000064744190   -0.6200
7      C7      0.0354   -1.9990    1.1411 C.ar     1 ZINC000064744190    0.6300
8      N8      0.0509   -2.6967    2.3418 N.pl3    1 ZINC000064744190   -0.4400
9      C9      0.0765   -4.0764    2.4936 C.ar     1 ZINC000064744190    0.0400
10     C10     0.0935   -5.1401    1.6060 C.ar     1 ZINC000064744190   -0.0800
11     C11     0.1184   -6.4346    2.0850 C.ar     1 ZINC000064744190   -0.1200
12     C12     0.1265   -6.6779    3.4499 C.ar     1 ZINC000064744190   -0.1100
13     C13     0.1099   -5.6321    4.3463 C.ar     1 ZINC000064744190   -0.0800
14     C14     0.0846   -4.3168    3.8775 C.ar     1 ZINC000064744190    0.0900
15     N15     0.0638   -3.1062    4.4960 N.2      1 ZINC000064744190   -0.5100
16     C16     0.0499   -2.1522    3.5997 C.2      1 ZINC000064744190    0.5800
17     N17     0.0281   -0.8019    3.8793 N.pl3    1 ZINC000064744190   -0.5900
18     C18     0.0188   -0.3621    5.2091 C.2      1 ZINC000064744190    0.3200
19     N19    -0.0074    0.8881    5.6075 N.2      1 ZINC000064744190   -0.3200
20     N20    -0.0086    0.9002    7.0082 N.pl3    1 ZINC000064744190   -0.4700
21     C21     0.0175   -0.3791    7.4376 C.2      1 ZINC000064744190    0.0700
22     C22     0.0296   -1.1818    6.3493 C.2      1 ZINC000064744190   -0.2700
23     N23     0.0220   -0.6695    1.1441 N.ar     1 ZINC000064744190   -0.6300
24     H24     1.0042    1.8801    0.0026 H        1 ZINC000064744190    0.1000
25     H25    -0.5455    1.8639   -0.8728 H        1 ZINC000064744190    0.1000
26     H26    -0.5286    1.8543    0.9071 H        1 ZINC000064744190    0.1000
27     H27     0.0176   -2.1784   -3.1937 H        1 ZINC000064744190    0.4200
28     H28     0.0417   -3.6391   -2.3639 H        1 ZINC000064744190    0.4200
29     H29     0.0869   -4.9569    0.5417 H        1 ZINC000064744190    0.1400
30     H30     0.1313   -7.2630    1.3922 H        1 ZINC000064744190    0.1300
31     H31     0.1457   -7.6948    3.8129 H        1 ZINC000064744190    0.1300
32     H32     0.1160   -5.8287    5.4083 H        1 ZINC000064744190    0.1400
33     H33     0.0193   -0.1568    3.1550 H        1 ZINC000064744190    0.4400
34     H34    -0.0251    1.6900    7.5711 H        1 ZINC000064744190    0.4400
35     H35     0.0241   -0.7041    8.4675 H        1 ZINC000064744190    0.1800
36     H36     0.0503   -2.2616    6.3558 H        1 ZINC000064744190    0.1800
@<TRIPOS>BOND
1     1     2     1
2     1     24    1
3     1     25    1
4     1     26    1
5     2     23    ar
6     2     3     ar
7     3     4     ar
8     4     5     1
9     4     6     ar
10    5     27    1
11    5     28    1
12    6     7     ar
13    7     8     1
14    7     23    ar
15    8     16    1
16    8     9     1
17    9     14    ar
18    9     10    ar
19    10    11    ar
20    10    29    1
21    11    12    ar
22    11    30    1
23    12    13    ar
24    12    31    1
25    13    14    ar
26    13    32    1
27    14    15    1
28    15    16    2
29    16    17    1
30    17    18    1
31    17    33    1
32    18    22    1
33    18    19    2
34    19    20    1
35    20    21    1
36    20    34    1
37    21    22    2
38    21    35    1
39    22    36    1
@<TRIPOS>SUBSTRUCTURE
1   ZINC000064744190 1     RESIDUE    1   A     ZIN   1
