@<TRIPOS>MOLECULE
ZINC000096170445
58    63    1     0     0
SMALL
USER_CHARGES
@<TRIPOS>ATOM
1      C1     -1.3317    0.4745   -0.2980 C.3      1 ZINC000096170445   -0.1500
2      C2      0.0621   -0.0372    0.0714 C.3      1 ZINC000096170445    0.0800
3      C3      0.8682    1.0952    0.7108 C.3      1 ZINC000096170445   -0.1400
4      C4     -0.0612   -1.1512    1.0257 C.1      1 ZINC000096170445    0.2200
5      N5     -0.1563   -2.0109    1.7621 N.1      1 ZINC000096170445   -0.4200
6      C6      0.7672   -0.5160   -1.1714 C.ar     1 ZINC000096170445   -0.0600
7      C7      0.2046   -0.2902   -2.4142 C.ar     1 ZINC000096170445   -0.1000
8      C8      0.8483   -0.7278   -3.5551 C.ar     1 ZINC000096170445   -0.1000
9      C9      2.0620   -1.3947   -3.4532 C.ar     1 ZINC000096170445    0.1300
10     N10     2.7175   -1.8393   -4.6083 N.am     1 ZINC000096170445   -0.5100
11     C11     3.2403   -0.9491   -5.4772 C.2      1 ZINC000096170445    0.6600
12     O12     3.1662    0.2397   -5.2380 O.2      1 ZINC000096170445   -0.4700
13     O13     3.8433   -1.3653   -6.6059 O.3      1 ZINC000096170445   -0.3300
14     C14     4.5761   -2.6202   -6.5484 C.3      1 ZINC000096170445    0.1200
15     C15     3.7364   -3.6377   -5.8199 C.ar     1 ZINC000096170445   -0.2400
16     C16     3.8518   -4.9927   -6.0864 C.ar     1 ZINC000096170445    0.1800
17     N17     3.1207   -5.8813   -5.4512 N.ar     1 ZINC000096170445   -0.4800
18     C18     2.2313   -5.5281   -4.5167 C.ar     1 ZINC000096170445    0.1600
19     C19     1.4633   -6.5001   -3.8502 C.ar     1 ZINC000096170445   -0.0900
20     C20     0.5641   -6.1271   -2.9033 C.ar     1 ZINC000096170445   -0.0800
21     C21     0.3839   -4.7747   -2.5729 C.ar     1 ZINC000096170445   -0.0300
22     C22    -0.6050   -4.3949   -1.5348 C.ar     1 ZINC000096170445   -0.1100
23     C23    -0.8929   -3.0421   -1.2937 C.ar     1 ZINC000096170445    0.1300
24     N24    -1.7611   -2.6779   -0.3845 N.ar     1 ZINC000096170445   -0.4600
25     C25    -2.4168   -3.5749    0.3596 C.ar     1 ZINC000096170445    0.1400
26     C26    -3.3463   -3.1645    1.3312 C.ar     1 ZINC000096170445   -0.0900
27     C27    -4.0018   -4.0958    2.0763 C.ar     1 ZINC000096170445   -0.1000
28     C28    -3.7680   -5.4575    1.8943 C.ar     1 ZINC000096170445   -0.1100
29     C29    -2.8754   -5.8942    0.9639 C.ar     1 ZINC000096170445   -0.1000
30     C30    -2.1809   -4.9608    0.1758 C.ar     1 ZINC000096170445   -0.1000
31     C31    -1.2565   -5.3741   -0.7988 C.ar     1 ZINC000096170445   -0.0400
32     C32     1.1236   -3.7939   -3.2097 C.ar     1 ZINC000096170445   -0.1100
33     C33     2.0552   -4.1598   -4.1881 C.ar     1 ZINC000096170445   -0.1100
34     C34     2.8382   -3.1985   -4.8633 C.ar     1 ZINC000096170445    0.2300
35     C35     2.6246   -1.6196   -2.2038 C.ar     1 ZINC000096170445   -0.1000
36     C36     1.9783   -1.1753   -1.0669 C.ar     1 ZINC000096170445   -0.1000
37     H37    -1.2404    1.2994   -1.0046 H        1 ZINC000096170445    0.0800
38     H38    -1.9059   -0.3323   -0.7536 H        1 ZINC000096170445    0.0900
39     H39    -1.8417    0.8208    0.6009 H        1 ZINC000096170445    0.0700
40     H40     0.3582    1.4416    1.6098 H        1 ZINC000096170445    0.0700
41     H41     1.8611    0.7307    0.9740 H        1 ZINC000096170445    0.0700
42     H42     0.9594    1.9201    0.0042 H        1 ZINC000096170445    0.0800
43     H43    -0.7394    0.2286   -2.4928 H        1 ZINC000096170445    0.1500
44     H44     0.4080   -0.5517   -4.5255 H        1 ZINC000096170445    0.1400
45     H45     4.7798   -2.9712   -7.5600 H        1 ZINC000096170445    0.1400
46     H46     5.5148   -2.4713   -6.0147 H        1 ZINC000096170445    0.1000
47     H47     4.5577   -5.3258   -6.8328 H        1 ZINC000096170445    0.1700
48     H48     1.5887   -7.5451   -4.0923 H        1 ZINC000096170445    0.1500
49     H49    -0.0206   -6.8813   -2.3977 H        1 ZINC000096170445    0.1400
50     H50    -0.3857   -2.2840   -1.8720 H        1 ZINC000096170445    0.1600
51     H51    -3.5393   -2.1132    1.4861 H        1 ZINC000096170445    0.1300
52     H52    -4.7146   -3.7742    2.8211 H        1 ZINC000096170445    0.1300
53     H53    -4.3016   -6.1755    2.4994 H        1 ZINC000096170445    0.1300
54     H54    -2.7022   -6.9521    0.8320 H        1 ZINC000096170445    0.1300
55     H55    -1.0561   -6.4220   -0.9667 H        1 ZINC000096170445    0.1400
56     H56     0.9828   -2.7540   -2.9542 H        1 ZINC000096170445    0.1600
57     H57     3.5684   -2.1380   -2.1213 H        1 ZINC000096170445    0.1300
58     H58     2.4155   -1.3495   -0.0949 H        1 ZINC000096170445    0.1400
@<TRIPOS>BOND
1     1     2     1
2     1     37    1
3     1     38    1
4     1     39    1
5     2     3     1
6     2     4     1
7     2     6     1
8     3     40    1
9     3     41    1
10    3     42    1
11    4     5     3
12    6     36    ar
13    6     7     ar
14    7     8     ar
15    7     43    1
16    8     9     ar
17    8     44    1
18    9     10    1
19    9     35    ar
20    10    34    1
21    10    11    am
22    11    12    2
23    11    13    1
24    13    14    1
25    14    15    1
26    14    45    1
27    14    46    1
28    15    34    ar
29    15    16    ar
30    16    17    ar
31    16    47    1
32    17    18    ar
33    18    33    ar
34    18    19    ar
35    19    20    ar
36    19    48    1
37    20    21    ar
38    20    49    1
39    21    22    1
40    21    32    ar
41    22    31    ar
42    22    23    ar
43    23    24    ar
44    23    50    1
45    24    25    ar
46    25    30    ar
47    25    26    ar
48    26    27    ar
49    26    51    1
50    27    28    ar
51    27    52    1
52    28    29    ar
53    28    53    1
54    29    30    ar
55    29    54    1
56    30    31    ar
57    31    55    1
58    32    33    ar
59    32    56    1
60    33    34    ar
61    35    36    ar
62    35    57    1
63    36    58    1
@<TRIPOS>SUBSTRUCTURE
1   ZINC000096170445 1     RESIDUE    1   A     ZIN   1
