@<TRIPOS>MOLECULE
ZINC000019834793
  43   45    0    0    0
SMALL
USER_CHARGES
NO_NAME
@<TRIPOS>ATOM
    1 O1        0.1621     0.2742     0.8682 O.2    1 <0>      -0.5700
    2 C2        0.0601     1.4203     0.4750 C.2    1 <0>       0.7100
    3 N3        1.1366     2.0602    -0.0231 N.am   1 <0>      -0.6800
    4 C4        2.3987     1.4519     0.0264 C.ar   1 <0>       0.1300
    5 C5        2.5074     0.0706    -0.0429 C.ar   1 <0>      -0.0700
    6 C6        3.7523    -0.5275     0.0061 C.ar   1 <0>      -0.1400
    7 C7        4.8914     0.2500     0.1249 C.ar   1 <0>       0.1100
    8 F8        6.1070    -0.3376     0.1730 F      1 <0>      -0.1300
    9 C9        4.7870     1.6293     0.1939 C.ar   1 <0>      -0.1700
   10 C10       3.5440     2.2325     0.1395 C.ar   1 <0>       0.1000
   11 F11       3.4416     3.5779     0.2063 F      1 <0>      -0.1300
   12 N12      -1.1308     2.0488     0.5321 N.am   1 <0>      -0.6200
   13 C13      -1.3144     3.3750    -0.0768 C.3    1 <0>       0.1100
   14 C14      -2.5500     3.3282    -0.9820 C.3    1 <0>       0.0400
   15 N15      -3.6990     2.8339    -0.2117 N.3    1 <0>      -0.5300
   16 C16      -4.9392     2.9358    -0.9923 C.3    1 <0>       0.0900
   17 C17      -6.1198     2.6559    -0.0985 C.ar   1 <0>      -0.0800
   18 C18      -6.5846     1.3623     0.0478 C.ar   1 <0>      -0.1200
   19 C19      -7.6676     1.1055     0.8677 C.ar   1 <0>      -0.1200
   20 C20      -8.2854     2.1423     1.5416 C.ar   1 <0>      -0.1200
   21 C21      -7.8200     3.4358     1.3961 C.ar   1 <0>      -0.1200
   22 C22      -6.7343     3.6920     0.5795 C.ar   1 <0>      -0.1000
   23 C23      -3.4787     1.4566     0.2493 C.3    1 <0>       0.0400
   24 C24      -2.2829     1.4240     1.1997 C.3    1 <0>       0.1300
   25 H25       1.0381     2.9416    -0.4159 H      1 <0>       0.4100
   26 H26       1.6194    -0.5372    -0.1349 H      1 <0>       0.1700
   27 H27       3.8365    -1.6029    -0.0479 H      1 <0>       0.1500
   28 H28       5.6769     2.2341     0.2866 H      1 <0>       0.1500
   29 H29      -1.4615     4.1198     0.7054 H      1 <0>       0.0900
   30 H30      -0.4359     3.6307    -0.6692 H      1 <0>       0.0800
   31 H31      -2.7657     4.3294    -1.3550 H      1 <0>       0.0900
   32 H32      -2.3604     2.6597    -1.8219 H      1 <0>       0.0400
   33 H33      -5.0267     3.9404    -1.4059 H      1 <0>       0.0900
   34 H34      -4.9180     2.2091    -1.8045 H      1 <0>       0.0500
   35 H35      -6.1020     0.5522    -0.4788 H      1 <0>       0.1200
   36 H36      -8.0312     0.0950     0.9814 H      1 <0>       0.1200
   37 H37      -9.1319     1.9419     2.1816 H      1 <0>       0.1200
   38 H38      -8.3029     4.2459     1.9224 H      1 <0>       0.1200
   39 H39      -6.3707     4.7025     0.4658 H      1 <0>       0.1200
   40 H40      -4.3680     1.1004     0.7692 H      1 <0>       0.1000
   41 H41      -3.2762     0.8142    -0.6077 H      1 <0>       0.0400
   42 H42      -2.0450     0.3910     1.4536 H      1 <0>       0.1000
   43 H43      -2.5200     1.9815     2.1058 H      1 <0>       0.0800
@<TRIPOS>BOND
   1    1    2 2
   2    2    3 am
   3    2   12 am
   4    3    4 1
   5    3   25 1
   6    4   10 ar
   7    4    5 ar
   8    5    6 ar
   9    5   26 1
  10    6    7 ar
  11    6   27 1
  12    7    8 1
  13    7    9 ar
  14    9   10 ar
  15    9   28 1
  16   10   11 1
  17   12   24 1
  18   12   13 1
  19   13   14 1
  20   13   29 1
  21   13   30 1
  22   14   15 1
  23   14   31 1
  24   14   32 1
  25   15   16 1
  26   15   23 1
  27   16   17 1
  28   16   33 1
  29   16   34 1
  30   17   22 ar
  31   17   18 ar
  32   18   19 ar
  33   18   35 1
  34   19   20 ar
  35   19   36 1
  36   20   21 ar
  37   20   37 1
  38   21   22 ar
  39   21   38 1
  40   22   39 1
  41   23   24 1
  42   23   40 1
  43   23   41 1
  44   24   42 1
  45   24   43 1
