@<TRIPOS>MOLECULE
ZINC000022448983
66    69    1     0     0
SMALL
USER_CHARGES
@<TRIPOS>ATOM
1      C1     -1.1463   -2.9635    3.1278 C.3      1 ZINC000022448983    0.0200
2      O2     -0.4267   -2.8595    1.8976 O.3      1 ZINC000022448983   -0.2900
3      C3      0.5694   -1.9360    1.8415 C.ar     1 ZINC000022448983    0.1700
4      C4      0.9237   -1.2289    2.9791 C.ar     1 ZINC000022448983   -0.1900
5      C5      1.9417   -0.2867    2.9191 C.ar     1 ZINC000022448983    0.1700
6      N6      2.3020    0.4284    4.0655 N.pl3    1 ZINC000022448983   -0.6700
7      C7      2.0695    1.7875    4.1328 C.ar     1 ZINC000022448983    0.3200
8      C8      2.8114    2.6128    5.0088 C.ar     1 ZINC000022448983   -0.1300
9      C9      3.8083    2.0759    5.8372 C.ar     1 ZINC000022448983   -0.1500
10     C10     4.5100    2.8952    6.6734 C.ar     1 ZINC000022448983    0.1100
11     O11     5.4757    2.3720    7.4752 O.3      1 ZINC000022448983   -0.3000
12     C12     5.6985    0.9632    7.3879 C.3      1 ZINC000022448983    0.0200
13     C13     4.2447    4.2714    6.7130 C.ar     1 ZINC000022448983    0.1600
14     O14     4.9553    5.0689    7.5524 O.3      1 ZINC000022448983   -0.3000
15     C15     4.6384    6.4623    7.5469 C.3      1 ZINC000022448983    0.0500
16     C16     5.5351    7.1932    8.5481 C.3      1 ZINC000022448983   -0.1300
17     C17     5.1958    8.6851    8.5422 C.3      1 ZINC000022448983    0.0600
18     N18     6.0568    9.3869    9.5035 N.3      1 ZINC000022448983   -0.5400
19     C19     6.1116    8.6679   10.7842 C.3      1 ZINC000022448983    0.0100
20     C20     7.0630    9.3976   11.7351 C.3      1 ZINC000022448983    0.0000
21     N21     6.5873   10.7713   11.9451 N.4      1 ZINC000022448983   -0.3900
22     H22     5.6574   10.7490   12.3360 H        1 ZINC000022448983    0.4200
23     C23     7.4911   11.4658   12.8719 C.3      1 ZINC000022448983   -0.0500
24     C24     6.5615   11.4840   10.6611 C.3      1 ZINC000022448983    0.0000
25     C25     5.6059   10.7718    9.7013 C.3      1 ZINC000022448983    0.0200
26     C26     3.2725    4.8232    5.9104 C.ar     1 ZINC000022448983   -0.1800
27     C27     2.5366    4.0013    5.0425 C.ar     1 ZINC000022448983    0.1900
28     N28     1.5858    4.5210    4.2527 N.ar     1 ZINC000022448983   -0.5000
29     C29     0.8835    3.7806    3.4332 C.ar     1 ZINC000022448983    0.2200
30     C30     1.0927    2.3964    3.3297 C.ar     1 ZINC000022448983   -0.1600
31     C31     0.3089    1.6119    2.4236 C.1      1 ZINC000022448983    0.2500
32     N32    -0.3128    0.9895    1.7049 N.1      1 ZINC000022448983   -0.4000
33     C33     2.6025   -0.0554    1.7183 C.ar     1 ZINC000022448983   -0.0700
34     Cl34    3.8760    1.1218    1.6414 Cl       1 ZINC000022448983   -0.0400
35     C35     2.2462   -0.7629    0.5853 C.ar     1 ZINC000022448983   -0.0500
36     C36     1.2360   -1.7053    0.6452 C.ar     1 ZINC000022448983   -0.0500
37     Cl37    0.7916   -2.5916   -0.7798 Cl       1 ZINC000022448983   -0.0300
38     H38    -1.5618   -1.9902    3.3891 H        1 ZINC000022448983    0.0600
39     H39    -1.9551   -3.6855    3.0157 H        1 ZINC000022448983    0.1100
40     H40    -0.4710   -3.2940    3.9170 H        1 ZINC000022448983    0.0600
41     H41     0.4086   -1.4101    3.9108 H        1 ZINC000022448983    0.1500
42     H42     2.7154   -0.0306    4.8134 H        1 ZINC000022448983    0.4200
43     H43     4.0197    1.0171    5.8136 H        1 ZINC000022448983    0.1400
44     H44     6.4926    0.6775    8.0778 H        1 ZINC000022448983    0.1100
45     H45     4.7823    0.4336    7.6491 H        1 ZINC000022448983    0.0600
46     H46     5.9905    0.7039    6.3703 H        1 ZINC000022448983    0.0600
47     H47     4.8022    6.8682    6.5486 H        1 ZINC000022448983    0.0700
48     H48     3.5940    6.5985    7.8276 H        1 ZINC000022448983    0.0700
49     H49     5.3713    6.7873    9.5464 H        1 ZINC000022448983    0.0800
50     H50     6.5795    7.0570    8.2674 H        1 ZINC000022448983    0.0900
51     H51     5.3596    9.0911    7.5440 H        1 ZINC000022448983    0.1000
52     H52     4.1514    8.8213    8.8230 H        1 ZINC000022448983    0.0500
53     H53     5.1148    8.6318   11.2240 H        1 ZINC000022448983    0.0600
54     H54     6.4725    7.6532   10.6165 H        1 ZINC000022448983    0.1300
55     H55     7.0941    8.8738   12.6905 H        1 ZINC000022448983    0.1400
56     H56     8.0626    9.4215   11.3012 H        1 ZINC000022448983    0.1400
57     H57     8.4959   11.4896   12.4501 H        1 ZINC000022448983    0.1200
58     H58     7.1383   12.4853   13.0279 H        1 ZINC000022448983    0.1200
59     H59     7.5097   10.9379   13.8253 H        1 ZINC000022448983    0.1200
60     H60     6.2208   12.5071   10.8202 H        1 ZINC000022448983    0.1400
61     H61     7.5637   11.4973   10.2327 H        1 ZINC000022448983    0.1400
62     H62     5.5979   11.2919    8.7434 H        1 ZINC000022448983    0.1300
63     H63     4.6009   10.7703   10.1231 H        1 ZINC000022448983    0.0600
64     H64     3.0761    5.8845    5.9486 H        1 ZINC000022448983    0.1500
65     H65     0.1287    4.2469    2.8174 H        1 ZINC000022448983    0.1700
66     H66     2.7604   -0.5823   -0.3471 H        1 ZINC000022448983    0.1600
@<TRIPOS>BOND
1     1     2     1
2     1     38    1
3     1     39    1
4     1     40    1
5     2     3     1
6     3     36    ar
7     3     4     ar
8     4     5     ar
9     4     41    1
10    5     6     1
11    5     33    ar
12    6     7     1
13    6     42    1
14    7     30    ar
15    7     8     ar
16    8     27    ar
17    8     9     ar
18    9     10    ar
19    9     43    1
20    10    11    1
21    10    13    ar
22    11    12    1
23    12    44    1
24    12    45    1
25    12    46    1
26    13    14    1
27    13    26    ar
28    14    15    1
29    15    16    1
30    15    47    1
31    15    48    1
32    16    17    1
33    16    49    1
34    16    50    1
35    17    18    1
36    17    51    1
37    17    52    1
38    18    25    1
39    18    19    1
40    19    20    1
41    19    53    1
42    19    54    1
43    20    21    1
44    20    55    1
45    20    56    1
46    21    22    1
47    21    23    1
48    21    24    1
49    23    57    1
50    23    58    1
51    23    59    1
52    24    25    1
53    24    60    1
54    24    61    1
55    25    62    1
56    25    63    1
57    26    27    ar
58    26    64    1
59    27    28    ar
60    28    29    ar
61    29    30    ar
62    29    65    1
63    30    31    1
64    31    32    3
65    33    34    1
66    33    35    ar
67    35    36    ar
68    35    66    1
69    36    37    1
@<TRIPOS>SUBSTRUCTURE
1   ZINC000022448983 1     RESIDUE    1   A     ZIN   1
