@<TRIPOS>MOLECULE
ZINC000000136154
  25   26    0    0    0
SMALL
USER_CHARGES
NO_NAME
@<TRIPOS>ATOM
    1 O1       -0.0365     1.3554     0.0113 O.3    1 <0>      -0.5000
    2 C2       -0.0137    -0.0043     0.0034 C.ar   1 <0>       0.1000
    3 C3       -0.0103    -0.7044     1.2010 C.ar   1 <0>      -0.1300
    4 C4        0.0134    -2.0850     1.1941 C.ar   1 <0>      -0.1100
    5 C5        0.0334    -2.7729    -0.0127 C.ar   1 <0>      -0.1100
    6 S6        0.0631    -4.5346    -0.0229 S.3    1 <0>       0.0000
    7 C7        0.2262    -4.9382     1.6845 C.ar   1 <0>      -0.1600
    8 C8       -0.9028    -5.2219     2.4427 C.ar   1 <0>      -0.0500
    9 C9       -0.7737    -5.5385     3.7805 C.ar   1 <0>      -0.1600
   10 C10       0.4827    -5.5734     4.3674 C.ar   1 <0>       0.1400
   11 O11       0.6087    -5.8854     5.6851 O.3    1 <0>      -0.5000
   12 C12       1.6108    -5.2908     3.6112 C.ar   1 <0>      -0.1500
   13 C13       1.4845    -4.9786     2.2720 C.ar   1 <0>      -0.0500
   14 C14       0.0296    -2.0708    -1.2115 C.ar   1 <0>      -0.0800
   15 C15       0.0006    -0.6903    -1.2023 C.ar   1 <0>      -0.1300
   16 H16      -0.9264     1.7338     0.0116 H      1 <0>       0.3900
   17 H17      -0.0258    -0.1694     2.1390 H      1 <0>       0.1300
   18 H18       0.0167    -2.6298     2.1266 H      1 <0>       0.1300
   19 H19      -1.8811    -5.1944     1.9860 H      1 <0>       0.1400
   20 H20      -1.6513    -5.7587     4.3702 H      1 <0>       0.1400
   21 H21       0.7193    -6.8306     5.8567 H      1 <0>       0.4000
   22 H22       2.5886    -5.3186     4.0690 H      1 <0>       0.1400
   23 H23       2.3629    -4.7586     1.6834 H      1 <0>       0.1400
   24 H24       0.0451    -2.6045    -2.1502 H      1 <0>       0.1300
   25 H25      -0.0024    -0.1442    -2.1341 H      1 <0>       0.1400
@<TRIPOS>BOND
   1    1    2 1
   2    1   16 1
   3    2   15 ar
   4    2    3 ar
   5    3    4 ar
   6    3   17 1
   7    4    5 ar
   8    4   18 1
   9    5    6 1
  10    5   14 ar
  11    6    7 1
  12    7   13 ar
  13    7    8 ar
  14    8    9 ar
  15    8   19 1
  16    9   10 ar
  17    9   20 1
  18   10   11 1
  19   10   12 ar
  20   11   21 1
  21   12   13 ar
  22   12   22 1
  23   13   23 1
  24   14   15 ar
  25   14   24 1
  26   15   25 1
