@<TRIPOS>MOLECULE
ZINC000008035442
108   112   1     0     0
SMALL
USER_CHARGES
@<TRIPOS>ATOM
1      C1     -1.1265    1.7540   -2.3305 C.3      1 ZINC000008035442   -0.1500
2      C2     -0.6324    0.5001   -1.6062 C.3      1 ZINC000008035442   -0.1300
3      C3      0.3467    0.9018   -0.5013 C.3      1 ZINC000008035442    0.1200
4      C4      0.6421   -0.3035    0.3936 C.3      1 ZINC000008035442    0.0800
5      H5      1.1702   -1.0730   -0.1696 H        1 ZINC000008035442    0.0700
6      O6      1.4189    0.1012    1.5419 O.3      1 ZINC000008035442   -0.3300
7      C7      1.2173   -0.9389    2.5234 C.3      1 ZINC000008035442    0.0800
8      H8      1.8327   -1.8072    2.2880 H        1 ZINC000008035442    0.0800
9      C9      1.5448   -0.4196    3.9248 C.3      1 ZINC000008035442    0.1100
10     H10     1.4488   -1.2319    4.6452 H        1 ZINC000008035442    0.0700
11     O11     0.6386    0.6309    4.2676 O.3      1 ZINC000008035442   -0.3600
12     C12     0.8409    1.1728    5.5743 C.3      1 ZINC000008035442    0.3000
13     O13     0.7032    0.1352    6.5471 O.3      1 ZINC000008035442   -0.5700
14     C14    -0.1984    2.2635    5.8409 C.3      1 ZINC000008035442    0.0600
15     O15    -1.5100    1.7026    5.7558 O.3      1 ZINC000008035442   -0.5700
16     C16     2.2462    1.7736    5.6640 C.3      1 ZINC000008035442   -0.1000
17     H17     2.3388    2.5920    4.9501 H        1 ZINC000008035442    0.0900
18     C18     2.4875    2.3006    7.0800 C.3      1 ZINC000008035442   -0.1500
19     C19     3.2782    0.6898    5.3371 C.3      1 ZINC000008035442   -0.1100
20     C20     2.9784    0.1169    3.9484 C.3      1 ZINC000008035442   -0.1200
21     H21     3.0858    0.9017    3.1997 H        1 ZINC000008035442    0.0900
22     C22     3.9564   -1.0192    3.6421 C.3      1 ZINC000008035442   -0.1400
23     C23    -0.2815   -1.2972    2.4167 C.3      1 ZINC000008035442   -0.1400
24     C24    -0.6689   -0.8714    0.9810 C.3      1 ZINC000008035442   -0.1100
25     H25    -1.0070   -1.7330    0.4052 H        1 ZINC000008035442    0.0800
26     C26    -1.7534    0.2073    1.0159 C.3      1 ZINC000008035442   -0.1800
27     C27    -0.2554    2.0469    0.3412 C.3      1 ZINC000008035442   -0.1700
28     C28     0.9821    2.9473    0.6056 C.3      1 ZINC000008035442   -0.1400
29     C29     1.7708    2.7584   -0.7147 C.3      1 ZINC000008035442    0.0900
30     H30     1.3794    3.4203   -1.4872 H        1 ZINC000008035442    0.0800
31     C31     3.2592    3.0305   -0.4877 C.3      1 ZINC000008035442    0.1200
32     C32     3.8308    2.0039    0.4923 C.3      1 ZINC000008035442   -0.1400
33     C33     3.4516    4.4564    0.0728 C.3      1 ZINC000008035442   -0.1400
34     C34     4.7316    4.9331   -0.6679 C.3      1 ZINC000008035442   -0.1800
35     C35     4.5616    4.2233   -2.0303 C.3      1 ZINC000008035442    0.2800
36     C36     5.9285    4.0277   -2.6806 C.3      1 ZINC000008035442   -0.1600
37     C37     6.5340    5.3985   -3.0018 C.3      1 ZINC000008035442    0.1100
38     H38     6.7053    5.9476   -2.0759 H        1 ZINC000008035442    0.0600
39     O39     7.7737    5.2242   -3.6909 O.3      1 ZINC000008035442   -0.5600
40     C40     5.5581    6.1792   -3.8877 C.3      1 ZINC000008035442   -0.1200
41     H41     5.9589    7.1741   -4.0819 H        1 ZINC000008035442    0.0900
42     C42     5.3657    5.4382   -5.2123 C.3      1 ZINC000008035442   -0.1400
43     C43     4.2119    6.3017   -3.1690 C.3      1 ZINC000008035442    0.1200
44     H44     4.3441    6.8597   -2.2420 H        1 ZINC000008035442    0.0700
45     C45     3.2175    7.0368   -4.0699 C.3      1 ZINC000008035442   -0.1100
46     H46     2.9855    6.4174   -4.9363 H        1 ZINC000008035442    0.0900
47     C47     3.8324    8.3575   -4.5371 C.3      1 ZINC000008035442   -0.1500
48     C48     1.9337    7.3205   -3.2874 C.3      1 ZINC000008035442    0.1300
49     H49     1.2682    7.9365   -3.8921 H        1 ZINC000008035442    0.0500
50     O50     2.2555    8.0118   -2.0788 O.3      1 ZINC000008035442   -0.3600
51     C51     1.9919    9.4155   -2.1243 C.3      1 ZINC000008035442    0.0400
52     C52     1.2395    5.9994   -2.9500 C.3      1 ZINC000008035442   -0.1600
53     H53     1.8583    5.4308   -2.2558 H        1 ZINC000008035442    0.0900
54     C54     1.0344    5.1893   -4.2316 C.3      1 ZINC000008035442   -0.1100
55     C55    -0.0976    6.2824   -2.3151 C.2      1 ZINC000008035442    0.4900
56     O56    -1.0467    5.5513   -2.5411 O.co2    1 ZINC000008035442   -0.7000
57     O57    -0.2302    7.2425   -1.5753 O.co2    1 ZINC000008035442   -0.6900
58     O58     3.7117    4.9954   -2.8721 O.3      1 ZINC000008035442   -0.3500
59     O59     3.9628    2.9570   -1.7345 O.3      1 ZINC000008035442   -0.3300
60     O60     1.5633    1.3854   -1.0823 O.3      1 ZINC000008035442   -0.3500
61     H61    -0.2777    2.2779   -2.7700 H        1 ZINC000008035442    0.0700
62     H62    -1.8240    1.4678   -3.1176 H        1 ZINC000008035442    0.0500
63     H63    -1.6297    2.4096   -1.6198 H        1 ZINC000008035442    0.0700
64     H64    -1.4812   -0.0238   -1.1667 H        1 ZINC000008035442    0.0800
65     H65    -0.1292   -0.1555   -2.3169 H        1 ZINC000008035442    0.0600
66     H66    -0.1645   -0.2917    6.5466 H        1 ZINC000008035442    0.3800
67     H67    -0.0440    2.6768    6.8376 H        1 ZINC000008035442    0.0700
68     H68    -0.0929    3.0551    5.0990 H        1 ZINC000008035442    0.0600
69     H69    -2.2209    2.3388    5.9142 H        1 ZINC000008035442    0.3800
70     H70     2.3969    1.4811    7.7930 H        1 ZINC000008035442    0.0700
71     H71     3.4882    2.7280    7.1430 H        1 ZINC000008035442    0.0600
72     H72     1.7492    3.0680    7.3128 H        1 ZINC000008035442    0.0600
73     H73     4.2778    1.1241    5.3443 H        1 ZINC000008035442    0.0700
74     H74     3.2194   -0.1057    6.0800 H        1 ZINC000008035442    0.0700
75     H75     3.8468   -1.8045    4.3900 H        1 ZINC000008035442    0.0500
76     H76     3.7424   -1.4262    2.6538 H        1 ZINC000008035442    0.0600
77     H77     4.9766   -0.6362    3.6642 H        1 ZINC000008035442    0.0600
78     H78    -0.4283   -2.3693    2.5482 H        1 ZINC000008035442    0.0700
79     H79    -0.8610   -0.7385    3.1516 H        1 ZINC000008035442    0.0900
80     H80    -1.6825    0.7636    1.9506 H        1 ZINC000008035442    0.0700
81     H81    -1.6155    0.8885    0.1763 H        1 ZINC000008035442    0.1000
82     H82    -2.7348   -0.2618    0.9458 H        1 ZINC000008035442    0.0500
83     H83    -1.0144    2.5871   -0.2247 H        1 ZINC000008035442    0.0900
84     H84    -0.6651    1.6662    1.2767 H        1 ZINC000008035442    0.1100
85     H85     0.6886    3.9881    0.7424 H        1 ZINC000008035442    0.0700
86     H86     1.5547    2.5870    1.4603 H        1 ZINC000008035442    0.0800
87     H87     3.7064    1.0017    0.0822 H        1 ZINC000008035442    0.0700
88     H88     4.8909    2.2030    0.6498 H        1 ZINC000008035442    0.0400
89     H89     3.3025    2.0757    1.4430 H        1 ZINC000008035442    0.0700
90     H90     2.6004    5.0896   -0.1773 H        1 ZINC000008035442    0.0900
91     H91     3.6139    4.4309    1.1504 H        1 ZINC000008035442    0.0800
92     H92     4.7363    6.0165   -0.7870 H        1 ZINC000008035442    0.0900
93     H93     5.6317    4.5919   -0.1565 H        1 ZINC000008035442    0.0800
94     H94     6.5846    3.4914   -1.9951 H        1 ZINC000008035442    0.0700
95     H95     5.8153    3.4548   -3.6010 H        1 ZINC000008035442    0.0900
96     H96     8.4367    4.7308   -3.1889 H        1 ZINC000008035442    0.3700
97     H97     4.9633    4.4441   -5.0175 H        1 ZINC000008035442    0.0600
98     H98     4.6712    5.9942   -5.8421 H        1 ZINC000008035442    0.0600
99     H99     6.3255    5.3484   -5.7211 H        1 ZINC000008035442    0.0600
100    H100    4.1899    8.9177   -3.6731 H        1 ZINC000008035442    0.0600
101    H101    4.6668    8.1526   -5.2078 H        1 ZINC000008035442    0.0600
102    H102    3.0786    8.9432   -5.0633 H        1 ZINC000008035442    0.0600
103    H103    2.3497    9.8823   -1.2066 H        1 ZINC000008035442    0.0700
104    H104    2.5061    9.8542   -2.9794 H        1 ZINC000008035442    0.0200
105    H105    0.9189    9.5808   -2.2215 H        1 ZINC000008035442    0.0400
106    H106    0.5003    5.7957   -4.9631 H        1 ZINC000008035442    0.0300
107    H107    2.0036    4.9000   -4.6376 H        1 ZINC000008035442    0.0400
108    H108    0.4530    4.2951   -4.0069 H        1 ZINC000008035442    0.0600
@<TRIPOS>BOND
1     1     2     1
2     1     61    1
3     1     62    1
4     1     63    1
5     2     3     1
6     2     64    1
7     2     65    1
8     3     60    1
9     3     4     1
10    3     27    1
11    4     5     1
12    4     24    1
13    4     6     1
14    6     7     1
15    7     8     1
16    7     9     1
17    7     23    1
18    9     10    1
19    9     20    1
20    9     11    1
21    11    12    1
22    12    13    1
23    12    14    1
24    12    16    1
25    13    66    1
26    14    15    1
27    14    67    1
28    14    68    1
29    15    69    1
30    16    17    1
31    16    18    1
32    16    19    1
33    18    70    1
34    18    71    1
35    18    72    1
36    19    20    1
37    19    73    1
38    19    74    1
39    20    21    1
40    20    22    1
41    22    75    1
42    22    76    1
43    22    77    1
44    23    24    1
45    23    78    1
46    23    79    1
47    24    25    1
48    24    26    1
49    26    80    1
50    26    81    1
51    26    82    1
52    27    28    1
53    27    83    1
54    27    84    1
55    28    29    1
56    28    85    1
57    28    86    1
58    29    30    1
59    29    31    1
60    29    60    1
61    31    59    1
62    31    32    1
63    31    33    1
64    32    87    1
65    32    88    1
66    32    89    1
67    33    34    1
68    33    90    1
69    33    91    1
70    34    35    1
71    34    92    1
72    34    93    1
73    35    58    1
74    35    36    1
75    35    59    1
76    36    37    1
77    36    94    1
78    36    95    1
79    37    38    1
80    37    39    1
81    37    40    1
82    39    96    1
83    40    41    1
84    40    42    1
85    40    43    1
86    42    97    1
87    42    98    1
88    42    99    1
89    43    44    1
90    43    45    1
91    43    58    1
92    45    46    1
93    45    47    1
94    45    48    1
95    47    100   1
96    47    101   1
97    47    102   1
98    48    49    1
99    48    50    1
100   48    52    1
101   50    51    1
102   51    103   1
103   51    104   1
104   51    105   1
105   52    53    1
106   52    54    1
107   52    55    1
108   54    106   1
109   54    107   1
110   54    108   1
111   55    56    ar
112   55    57    ar
@<TRIPOS>SUBSTRUCTURE
1   ZINC000008035442 1     RESIDUE    1   A     ZIN   1
