@<TRIPOS>MOLECULE
ZINC000000602192
52    54    1     0     0
SMALL
USER_CHARGES
@<TRIPOS>ATOM
1      C1     -0.0187    1.5258    0.0104 C.3      1 ZINC000000602192   -0.1500
2      C2      0.0021   -0.0041    0.0020 C.3      1 ZINC000000602192   -0.1300
3      C3      0.7182   -0.4975   -1.2568 C.3      1 ZINC000000602192    0.1700
4      H4      1.7103   -0.0491   -1.3098 H        1 ZINC000000602192    0.1000
5      C5      0.8493   -2.0210   -1.2049 C.3      1 ZINC000000602192    0.0600
6      O6     -0.4420   -2.6041   -1.0184 O.3      1 ZINC000000602192   -0.5700
7      N7     -0.0549   -0.1139   -2.4405 N.pl3    1 ZINC000000602192   -0.6800
8      C8      0.5781    0.0318   -3.6639 C.ar     1 ZINC000000602192    0.6300
9      N9      1.8847   -0.1868   -3.7392 N.ar     1 ZINC000000602192   -0.6300
10     C10     2.5369   -0.0601   -4.8895 C.ar     1 ZINC000000602192    0.5400
11     N11     3.8995   -0.2906   -4.9584 N.pl3    1 ZINC000000602192   -0.6900
12     C12     4.6385   -0.6790   -3.7545 C.3      1 ZINC000000602192    0.1700
13     C13     6.0937   -0.8680   -4.0975 C.ar     1 ZINC000000602192   -0.1100
14     C14     6.5525   -2.1067   -4.5050 C.ar     1 ZINC000000602192   -0.1000
15     C15     7.8874   -2.2801   -4.8196 C.ar     1 ZINC000000602192   -0.1200
16     C16     8.7633   -1.2147   -4.7272 C.ar     1 ZINC000000602192   -0.1100
17     C17     8.3043    0.0242   -4.3206 C.ar     1 ZINC000000602192   -0.1200
18     C18     6.9686    0.1986   -4.0101 C.ar     1 ZINC000000602192   -0.1000
19     C19     1.8131    0.3127   -6.0351 C.ar     1 ZINC000000602192   -0.1600
20     N20     2.1344    0.5309   -7.3342 N.2      1 ZINC000000602192   -0.4500
21     C21     1.0643    0.8633   -7.9950 C.2      1 ZINC000000602192    0.2300
22     N22    -0.0135    0.8793   -7.1584 N.pl3    1 ZINC000000602192   -0.4700
23     C23    -1.3930    1.2055   -7.5281 C.3      1 ZINC000000602192    0.1300
24     C24    -1.4491    2.6303   -8.0827 C.3      1 ZINC000000602192   -0.1600
25     C25    -1.8810    0.2234   -8.5949 C.3      1 ZINC000000602192   -0.1600
26     C26     0.4318    0.5337   -5.9076 C.ar     1 ZINC000000602192    0.3500
27     N27    -0.1418    0.3790   -4.7185 N.ar     1 ZINC000000602192   -0.6200
28     H28     1.0039    1.9031    0.0027 H        1 ZINC000000602192    0.0500
29     H29    -0.5459    1.8868   -0.8726 H        1 ZINC000000602192    0.0600
30     H30    -0.5289    1.8773    0.9072 H        1 ZINC000000602192    0.0600
31     H31     0.5293   -0.3651    0.8851 H        1 ZINC000000602192    0.0800
32     H32    -1.0205   -0.3814    0.0098 H        1 ZINC000000602192    0.0800
33     H33     1.2788   -2.3807   -2.1399 H        1 ZINC000000602192    0.0500
34     H34     1.4980   -2.3018   -0.3753 H        1 ZINC000000602192    0.0500
35     H35    -0.4349   -3.5701   -0.9761 H        1 ZINC000000602192    0.3800
36     H36    -1.0102    0.0381   -2.3676 H        1 ZINC000000602192    0.4100
37     H37     4.3654   -0.1951   -5.8038 H        1 ZINC000000602192    0.4200
38     H38     4.5414    0.1023   -3.0007 H        1 ZINC000000602192    0.0800
39     H39     4.2328   -1.6126   -3.3646 H        1 ZINC000000602192    0.0800
40     H40     5.8681   -2.9391   -4.5772 H        1 ZINC000000602192    0.1200
41     H41     8.2460   -3.2481   -5.1372 H        1 ZINC000000602192    0.1200
42     H42     9.8063   -1.3504   -4.9723 H        1 ZINC000000602192    0.1200
43     H43     8.9887    0.8565   -4.2480 H        1 ZINC000000602192    0.1200
44     H44     6.6100    1.1665   -3.6924 H        1 ZINC000000602192    0.1200
45     H45     1.0336    1.0929   -9.0498 H        1 ZINC000000602192    0.2100
46     H46    -2.0319    1.1329   -6.6479 H        1 ZINC000000602192    0.1100
47     H47    -0.8102    2.7029   -8.9629 H        1 ZINC000000602192    0.0700
48     H48    -2.4755    2.8731   -8.3578 H        1 ZINC000000602192    0.0800
49     H49    -1.1014    3.3300   -7.3227 H        1 ZINC000000602192    0.0600
50     H50    -1.8411   -0.7917   -8.1997 H        1 ZINC000000602192    0.0600
51     H51    -2.9075    0.4661   -8.8699 H        1 ZINC000000602192    0.0800
52     H52    -1.2422    0.2960   -9.4750 H        1 ZINC000000602192    0.0700
@<TRIPOS>BOND
1     1     2     1
2     1     28    1
3     1     29    1
4     1     30    1
5     2     3     1
6     2     31    1
7     2     32    1
8     3     4     1
9     3     5     1
10    3     7     1
11    5     6     1
12    5     33    1
13    5     34    1
14    6     35    1
15    7     8     1
16    7     36    1
17    8     27    ar
18    8     9     ar
19    9     10    ar
20    10    11    1
21    10    19    ar
22    11    12    1
23    11    37    1
24    12    13    1
25    12    38    1
26    12    39    1
27    13    18    ar
28    13    14    ar
29    14    15    ar
30    14    40    1
31    15    16    ar
32    15    41    1
33    16    17    ar
34    16    42    1
35    17    18    ar
36    17    43    1
37    18    44    1
38    19    26    ar
39    19    20    1
40    20    21    2
41    21    22    1
42    21    45    1
43    22    23    1
44    22    26    1
45    23    24    1
46    23    25    1
47    23    46    1
48    24    47    1
49    24    48    1
50    24    49    1
51    25    50    1
52    25    51    1
53    25    52    1
54    26    27    ar
@<TRIPOS>SUBSTRUCTURE
1   ZINC000000602192 1     RESIDUE    1   A     ZIN   1
