@<TRIPOS>MOLECULE
ZINC000003874832
28    30    1     0     0
SMALL
USER_CHARGES
@<TRIPOS>ATOM
1      O1      0.0021   -0.0041    0.0020 O.2      1 ZINC000003874832   -0.4100
2      C2     -0.0144    1.2121    0.0087 C.2      1 ZINC000003874832    0.4400
3      C3     -1.2978    1.9416    0.0310 C.ar     1 ZINC000003874832   -0.1200
4      C4     -2.4913    1.2807   -0.2411 C.ar     1 ZINC000003874832   -0.0600
5      C5     -3.6884    1.9742   -0.2171 C.ar     1 ZINC000003874832   -0.1100
6      C6     -3.7121    3.3274    0.0773 C.ar     1 ZINC000003874832    0.1000
7      O7     -4.8946    3.9941    0.0982 O.3      1 ZINC000003874832   -0.4800
8      C8     -2.5222    4.0102    0.3537 C.ar     1 ZINC000003874832    0.1400
9      O9     -2.5470    5.3355    0.6416 O.3      1 ZINC000003874832   -0.4700
10     C10    -1.3113    3.3200    0.3306 C.ar     1 ZINC000003874832   -0.1400
11     C11    -0.0432    4.0186    0.6161 C.2      1 ZINC000003874832    0.4400
12     O12    -0.0505    5.1288    1.1128 O.2      1 ZINC000003874832   -0.4000
13     C13     1.2332    3.3543    0.2923 C.ar     1 ZINC000003874832   -0.1400
14     C14     2.4267    4.0769    0.2773 C.ar     1 ZINC000003874832    0.1500
15     O15     2.4227    5.4030    0.5619 O.3      1 ZINC000003874832   -0.4800
16     C16     3.6236    3.4313   -0.0305 C.ar     1 ZINC000003874832   -0.1100
17     C17     3.6376    2.0856   -0.3205 C.ar     1 ZINC000003874832   -0.1100
18     C18     2.4549    1.3471   -0.3116 C.ar     1 ZINC000003874832    0.1600
19     O19     2.4783    0.0219   -0.5992 O.3      1 ZINC000003874832   -0.4800
20     C20     1.2474    1.9755    0.0008 C.ar     1 ZINC000003874832   -0.1400
21     H21    -2.4834    0.2257   -0.4716 H        1 ZINC000003874832    0.1500
22     H22    -4.6119    1.4562   -0.4300 H        1 ZINC000003874832    0.1500
23     H23    -5.3282    3.9989    0.9625 H        1 ZINC000003874832    0.4000
24     H24    -2.6456    5.5317    1.5833 H        1 ZINC000003874832    0.4000
25     H25     2.5431    5.6043    1.5000 H        1 ZINC000003874832    0.4000
26     H26     4.5470    3.9914   -0.0419 H        1 ZINC000003874832    0.1500
27     H27     4.5718    1.5982   -0.5571 H        1 ZINC000003874832    0.1500
28     H28     2.6061   -0.5459    0.1731 H        1 ZINC000003874832    0.4000
@<TRIPOS>BOND
1     1     2     2
2     2     20    1
3     2     3     1
4     3     10    ar
5     3     4     ar
6     4     5     ar
7     4     21    1
8     5     6     ar
9     5     22    1
10    6     7     1
11    6     8     ar
12    7     23    1
13    8     9     1
14    8     10    ar
15    9     24    1
16    10    11    1
17    11    12    2
18    11    13    1
19    13    20    ar
20    13    14    ar
21    14    15    1
22    14    16    ar
23    15    25    1
24    16    17    ar
25    16    26    1
26    17    18    ar
27    17    27    1
28    18    19    1
29    18    20    ar
30    19    28    1
@<TRIPOS>SUBSTRUCTURE
1   ZINC000003874832 1     RESIDUE    1   A     ZIN   1
