@<TRIPOS>MOLECULE
ZINC000016052235
  38   41    0    0    0
SMALL
USER_CHARGES
NO_NAME
@<TRIPOS>ATOM
    1 C1        1.7428     1.3657    -0.2911 C.3    1 <0>      -0.0900
    2 C2        1.4001    -0.1005    -0.2292 C.2    1 <0>       0.0900
    3 C3        1.0374    -0.8781    -1.2745 C.2    1 <0>      -0.2700
    4 C4        0.8078    -2.1750    -0.7873 C.2    1 <0>       0.3100
    5 N5        0.4140    -3.2823    -1.5491 N.pl3  1 <0>      -0.6000
    6 C6        0.1164    -3.1282    -2.8871 C.ar   1 <0>       0.4800
    7 C7       -0.1697    -4.2520    -3.7020 C.ar   1 <0>      -0.1900
    8 C8       -0.1644    -5.5559    -3.1958 C.ar   1 <0>      -0.0700
    9 C9       -0.4476    -6.6008    -4.0260 C.ar   1 <0>      -0.1300
   10 C10      -0.7412    -6.3872    -5.3698 C.ar   1 <0>      -0.0700
   11 C11      -0.7543    -5.1292    -5.8946 C.ar   1 <0>      -0.1100
   12 C12      -0.4688    -4.0319    -5.0695 C.ar   1 <0>       0.1900
   13 N13      -0.4692    -2.7761    -5.5362 N.ar   1 <0>      -0.5300
   14 C14      -0.1965    -1.7644    -4.7332 C.ar   1 <0>       0.4100
   15 C15      -0.2081    -0.3908    -5.2917 C.ar   1 <0>      -0.0500
   16 C16       0.0019     0.7056    -4.4570 C.ar   1 <0>      -0.0700
   17 C17      -0.0095     1.9817    -4.9825 C.ar   1 <0>      -0.1300
   18 C18      -0.2292     2.1738    -6.3347 C.ar   1 <0>      -0.1000
   19 C19      -0.4381     1.0894    -7.1678 C.ar   1 <0>      -0.1300
   20 C20      -0.4232    -0.1915    -6.6545 C.ar   1 <0>      -0.0700
   21 N21       0.0853    -1.9256    -3.4420 N.ar   1 <0>      -0.5700
   22 N22       1.0272    -2.1681     0.5066 N.2    1 <0>      -0.3200
   23 N23       1.4065    -0.8719     0.8783 N.pl3  1 <0>      -0.4700
   24 H24       2.8106     1.4818    -0.4766 H      1 <0>       0.0800
   25 H25       1.1806     1.8365    -1.0976 H      1 <0>       0.0900
   26 H26       1.4851     1.8394     0.6562 H      1 <0>       0.0700
   27 H27       0.9410    -0.5583    -2.3015 H      1 <0>       0.1800
   28 H28       0.3504    -4.1575    -1.1357 H      1 <0>       0.4300
   29 H29       0.0626    -5.7343    -2.1551 H      1 <0>       0.1300
   30 H30      -0.4435    -7.6076    -3.6353 H      1 <0>       0.1300
   31 H31      -0.9617    -7.2312    -6.0065 H      1 <0>       0.1400
   32 H32      -0.9838    -4.9784    -6.9391 H      1 <0>       0.1400
   33 H33       0.1727     0.5569    -3.4010 H      1 <0>       0.1400
   34 H34       0.1530     2.8319    -4.3367 H      1 <0>       0.1300
   35 H35      -0.2379     3.1742    -6.7414 H      1 <0>       0.1300
   36 H36      -0.6091     1.2453    -8.2227 H      1 <0>       0.1300
   37 H37      -0.5864    -1.0374    -7.3058 H      1 <0>       0.1400
   38 H38       1.6297    -0.5788     1.7756 H      1 <0>       0.4400
@<TRIPOS>BOND
   1    1    2 1
   2    1   24 1
   3    1   25 1
   4    1   26 1
   5    2   23 1
   6    2    3 2
   7    3    4 1
   8    3   27 1
   9    4    5 1
  10    4   22 2
  11    5    6 1
  12    5   28 1
  13    6   21 ar
  14    6    7 ar
  15    7   12 ar
  16    7    8 ar
  17    8    9 ar
  18    8   29 1
  19    9   10 ar
  20    9   30 1
  21   10   11 ar
  22   10   31 1
  23   11   12 ar
  24   11   32 1
  25   12   13 ar
  26   13   14 ar
  27   14   15 1
  28   14   21 ar
  29   15   20 ar
  30   15   16 ar
  31   16   17 ar
  32   16   33 1
  33   17   18 ar
  34   17   34 1
  35   18   19 ar
  36   18   35 1
  37   19   20 ar
  38   19   36 1
  39   20   37 1
  40   22   23 1
  41   23   38 1
