@<TRIPOS>MOLECULE
ZINC000049757077
78    82    1     0     0
SMALL
USER_CHARGES
@<TRIPOS>ATOM
1      C1     -0.5526   -1.5901   -1.6280 C.3      1 ZINC000049757077    0.0300
2      N2     -1.5576   -1.0870   -2.5740 N.3      1 ZINC000049757077   -0.5100
3      C3     -0.9765   -0.9020   -3.9104 C.3      1 ZINC000049757077    0.0300
4      C4     -2.6641   -1.9322   -2.6233 C.ar     1 ZINC000049757077    0.1200
5      C5     -2.5162   -3.2503   -2.9985 C.ar     1 ZINC000049757077   -0.1600
6      C6     -3.6152   -4.1030   -3.0506 C.ar     1 ZINC000049757077   -0.0700
7      C7     -4.8634   -3.6613   -2.7340 C.ar     1 ZINC000049757077   -0.1400
8      C8     -5.0575   -2.3243   -2.3463 C.ar     1 ZINC000049757077    0.0400
9      C9     -6.3343   -1.8411   -2.0129 C.ar     1 ZINC000049757077   -0.6800
10     S10    -7.7311   -2.9133   -2.0757 S.o2     1 ZINC000049757077    2.7000
11     O11    -8.8487   -2.1413   -1.6583 O.2      1 ZINC000049757077   -0.9600
12     O12    -7.6707   -3.5780   -3.3302 O.2      1 ZINC000049757077   -0.9500
13     N13    -7.5083   -4.0770   -0.9187 N.am     1 ZINC000049757077   -1.1200
14     C14    -7.3875   -3.6951    0.4905 C.3      1 ZINC000049757077    0.1200
15     C15    -7.5490   -4.9361    1.3707 C.3      1 ZINC000049757077    0.0500
16     N16    -7.4279   -4.5532    2.7838 N.3      1 ZINC000049757077   -0.5300
17     C17    -8.5425   -3.6878    3.1921 C.3      1 ZINC000049757077    0.0100
18     C18    -7.3401   -5.7400    3.6451 C.3      1 ZINC000049757077    0.0400
19     C19    -6.9673   -5.3124    5.0660 C.3      1 ZINC000049757077    0.1500
20     N20    -6.8797   -6.4960    5.9250 N.pl3    1 ZINC000049757077   -0.6100
21     N21    -6.5499   -6.3557    7.2794 N.2      1 ZINC000049757077    0.0500
22     N22    -6.4728   -7.3978    8.0357 N.2      1 ZINC000049757077   -0.3300
23     C23    -6.1499   -7.2605    9.3617 C.ar     1 ZINC000049757077    0.0900
24     C24    -5.9099   -5.9829    9.8924 C.ar     1 ZINC000049757077   -0.0900
25     C25    -5.5886   -5.8208   11.2041 C.ar     1 ZINC000049757077   -0.1000
26     C26    -5.4937   -6.9394   12.0447 C.ar     1 ZINC000049757077    0.1900
27     N27    -5.1799   -6.8216   13.3437 N.ar     1 ZINC000049757077   -0.5400
28     C28    -5.0981   -7.8844   14.1083 C.ar     1 ZINC000049757077    0.3500
29     N29    -5.3136   -9.1118   13.6624 N.ar     1 ZINC000049757077   -0.5800
30     C30    -5.6302   -9.3424   12.3954 C.ar     1 ZINC000049757077    0.4700
31     N31    -5.8520  -10.6265   11.9427 N.pl3    1 ZINC000049757077   -0.6400
32     C32    -5.8598  -11.6940   12.8451 C.ar     1 ZINC000049757077    0.1600
33     C33    -6.3203  -11.5056   14.1419 C.ar     1 ZINC000049757077   -0.1100
34     C34    -6.3275  -12.5623   15.0315 C.ar     1 ZINC000049757077   -0.0900
35     C35    -5.8769  -13.8070   14.6328 C.ar     1 ZINC000049757077   -0.1200
36     C36    -5.4171  -13.9987   13.3412 C.ar     1 ZINC000049757077   -0.0100
37     Cl37   -4.8523  -15.5634   12.8449 Cl       1 ZINC000049757077   -0.0600
38     C38    -5.4125  -12.9467   12.4450 C.ar     1 ZINC000049757077   -0.1400
39     C39    -5.7340   -8.2333   11.5188 C.ar     1 ZINC000049757077   -0.1800
40     C40    -6.0682   -8.3845   10.1712 C.ar     1 ZINC000049757077   -0.0300
41     C41    -6.4864   -0.5404   -1.6407 C.ar     1 ZINC000049757077    0.0200
42     C42    -5.3937    0.3217   -1.5848 C.ar     1 ZINC000049757077   -0.1600
43     C43    -4.1420   -0.1123   -1.9010 C.ar     1 ZINC000049757077   -0.0200
44     C44    -3.9461   -1.4479   -2.2838 C.ar     1 ZINC000049757077   -0.0600
45     H45     0.2683   -0.8766   -1.5564 H        1 ZINC000049757077    0.0800
46     H46    -1.0094   -1.7181   -0.6466 H        1 ZINC000049757077    0.0700
47     H47    -0.1711   -2.5489   -1.9791 H        1 ZINC000049757077    0.0300
48     H48    -0.6615   -1.8673   -4.3065 H        1 ZINC000049757077    0.0300
49     H49    -1.7222   -0.4631   -4.5733 H        1 ZINC000049757077    0.0700
50     H50    -0.1146   -0.2381   -3.8431 H        1 ZINC000049757077    0.0800
51     H51    -1.5367   -3.6256   -3.2554 H        1 ZINC000049757077    0.1300
52     H52    -3.4753   -5.1319   -3.3474 H        1 ZINC000049757077    0.1300
53     H53    -5.7040   -4.3378   -2.7810 H        1 ZINC000049757077    0.1300
54     H54    -7.4577   -5.0114   -1.1741 H        1 ZINC000049757077    0.4200
55     H55    -6.4071   -3.2516    0.6640 H        1 ZINC000049757077    0.0800
56     H56    -8.1631   -2.9705    0.7383 H        1 ZINC000049757077    0.0800
57     H57    -8.5294   -5.3796    1.1972 H        1 ZINC000049757077    0.0500
58     H58    -6.7734   -5.6608    1.1229 H        1 ZINC000049757077    0.0900
59     H59    -9.4843   -4.2185    3.0532 H        1 ZINC000049757077    0.0300
60     H60    -8.4281   -3.4192    4.2423 H        1 ZINC000049757077    0.0800
61     H61    -8.5419   -2.7834    2.5837 H        1 ZINC000049757077    0.0800
62     H62    -8.3032   -6.2501    3.6601 H        1 ZINC000049757077    0.0500
63     H63    -6.5774   -6.4150    3.2569 H        1 ZINC000049757077    0.0900
64     H64    -6.0041   -4.8023    5.0511 H        1 ZINC000049757077    0.0800
65     H65    -7.7300   -4.6374    5.4542 H        1 ZINC000049757077    0.0700
66     H66    -7.0501   -7.3767    5.5560 H        1 ZINC000049757077    0.3900
67     H67    -5.9810   -5.1173    9.2505 H        1 ZINC000049757077    0.1400
68     H68    -5.4064   -4.8318   11.5978 H        1 ZINC000049757077    0.1500
69     H69    -4.8428   -7.7518   15.1493 H        1 ZINC000049757077    0.2000
70     H70    -6.0025  -10.7887   10.9983 H        1 ZINC000049757077    0.4200
71     H71    -6.6722  -10.5336   14.4545 H        1 ZINC000049757077    0.1400
72     H72    -6.6852  -12.4158   16.0399 H        1 ZINC000049757077    0.1400
73     H73    -5.8832  -14.6313   15.3305 H        1 ZINC000049757077    0.1400
74     H74    -5.0538  -13.0964   11.4374 H        1 ZINC000049757077    0.1400
75     H75    -6.2575   -9.3662    9.7627 H        1 ZINC000049757077    0.1400
76     H76    -7.4688   -0.1715   -1.3853 H        1 ZINC000049757077    0.1500
77     H77    -5.5412    1.3492   -1.2868 H        1 ZINC000049757077    0.1400
78     H78    -3.3039    0.5672   -1.8536 H        1 ZINC000049757077    0.1500
@<TRIPOS>BOND
1     1     2     1
2     1     45    1
3     1     46    1
4     1     47    1
5     2     3     1
6     2     4     1
7     3     48    1
8     3     49    1
9     3     50    1
10    4     44    ar
11    4     5     ar
12    5     6     ar
13    5     51    1
14    6     7     ar
15    6     52    1
16    7     8     ar
17    7     53    1
18    8     44    ar
19    8     9     ar
20    9     10    1
21    9     41    ar
22    10    11    2
23    10    12    2
24    10    13    am
25    13    14    1
26    13    54    1
27    14    15    1
28    14    55    1
29    14    56    1
30    15    16    1
31    15    57    1
32    15    58    1
33    16    17    1
34    16    18    1
35    17    59    1
36    17    60    1
37    17    61    1
38    18    19    1
39    18    62    1
40    18    63    1
41    19    20    1
42    19    64    1
43    19    65    1
44    20    21    1
45    20    66    1
46    21    22    2
47    22    23    1
48    23    40    ar
49    23    24    ar
50    24    25    ar
51    24    67    1
52    25    26    ar
53    25    68    1
54    26    39    ar
55    26    27    ar
56    27    28    ar
57    28    29    ar
58    28    69    1
59    29    30    ar
60    30    31    1
61    30    39    ar
62    31    32    1
63    31    70    1
64    32    38    ar
65    32    33    ar
66    33    34    ar
67    33    71    1
68    34    35    ar
69    34    72    1
70    35    36    ar
71    35    73    1
72    36    37    1
73    36    38    ar
74    38    74    1
75    39    40    ar
76    40    75    1
77    41    42    ar
78    41    76    1
79    42    43    ar
80    42    77    1
81    43    44    ar
82    43    78    1
@<TRIPOS>SUBSTRUCTURE
1   ZINC000049757077 1     RESIDUE    1   A     ZIN   1
