@<TRIPOS>MOLECULE
ZINC000147134791
  43   47    0    0    0
SMALL
USER_CHARGES
NO_NAME
@<TRIPOS>ATOM
    1 C1       -0.7417     1.1765    -0.2593 C.3    1 <0>       0.0300
    2 O2        0.0210    -0.0013     0.0112 O.3    1 <0>      -0.3200
    3 C3        0.6205    -0.6056    -1.0493 C.ar   1 <0>       0.1100
    4 C4        0.4809    -0.0711    -2.3217 C.ar   1 <0>      -0.1900
    5 C5        1.0896    -0.6838    -3.3991 C.ar   1 <0>      -0.1000
    6 C6        1.8418    -1.8357    -3.2085 C.ar   1 <0>       0.1200
    7 N7        2.4596    -2.4572    -4.2999 N.pl3  1 <0>      -0.6300
    8 C8        2.6013    -3.8358    -4.3234 C.2    1 <0>       0.4800
    9 N9        2.0609    -4.5723    -3.3752 N.2    1 <0>      -0.5300
   10 C10       2.1853    -5.9113    -3.3782 C.2    1 <0>       0.1700
   11 C11       1.5614    -6.7041    -2.2917 C.ar   1 <0>       0.0000
   12 C12       0.8595    -6.0542    -1.3001 C.ar   1 <0>      -0.0500
   13 C13       0.2651    -6.8058    -0.2665 C.ar   1 <0>       0.1000
   14 N14      -0.4523    -6.5063     0.8022 N.2    1 <0>      -0.2900
   15 N15      -0.7745    -7.6884     1.4784 N.pl3  1 <0>      -0.4200
   16 C16      -0.2563    -8.7414     0.8312 C.2    1 <0>       0.0800
   17 C17       0.4150    -8.2696    -0.2809 C.ar   1 <0>      -0.2100
   18 C18       1.1474    -8.8738    -1.3266 C.ar   1 <0>      -0.0400
   19 C19       1.6935    -8.1054    -2.2978 C.ar   1 <0>      -0.1400
   20 C20       2.8736    -6.5501    -4.3616 C.2    1 <0>      -0.0500
   21 N21       3.4526    -5.8257    -5.3682 N.pl3  1 <0>      -0.3300
   22 C22       4.1860    -6.1628    -6.4642 C.2    1 <0>      -0.0600
   23 C23       4.4937    -5.0114    -7.1075 C.2    1 <0>       0.0200
   24 N24       3.9657    -3.9919    -6.4289 N.2    1 <0>      -0.4600
   25 C25       3.3243    -4.4599    -5.3723 C.2    1 <0>       0.1400
   26 C26       1.9810    -2.3702    -1.9342 C.ar   1 <0>      -0.0700
   27 C27       1.3759    -1.7531    -0.8572 C.ar   1 <0>      -0.1300
   28 H28      -0.0951     1.9345    -0.7013 H      1 <0>       0.0600
   29 H29      -1.5472     0.9364    -0.9533 H      1 <0>       0.0600
   30 H30      -1.1646     1.5570     0.6705 H      1 <0>       0.1000
   31 H31      -0.1044     0.8244    -2.4698 H      1 <0>       0.1300
   32 H32       0.9805    -0.2677    -4.3897 H      1 <0>       0.1300
   33 H33       2.7885    -1.9231    -5.0398 H      1 <0>       0.4300
   34 H34       0.7659    -4.9784    -1.3145 H      1 <0>       0.1500
   35 H35      -1.2955    -7.7383     2.2952 H      1 <0>       0.4500
   36 H36      -0.3476    -9.7763     1.1264 H      1 <0>       0.1900
   37 H37       1.2678    -9.9467    -1.3535 H      1 <0>       0.1300
   38 H38       2.2511    -8.5785    -3.0926 H      1 <0>       0.1300
   39 H39       2.9634    -7.6263    -4.3482 H      1 <0>       0.1700
   40 H40       4.4698    -7.1608    -6.7640 H      1 <0>       0.1900
   41 H41       5.0702    -4.9322    -8.0173 H      1 <0>       0.1900
   42 H42       2.5658    -3.2658    -1.7851 H      1 <0>       0.1400
   43 H43       1.4844    -2.1684     0.1338 H      1 <0>       0.1300
@<TRIPOS>BOND
   1    1    2 1
   2    1   28 1
   3    1   29 1
   4    1   30 1
   5    2    3 1
   6    3   27 ar
   7    3    4 ar
   8    4    5 ar
   9    4   31 1
  10    5    6 ar
  11    5   32 1
  12    6    7 1
  13    6   26 ar
  14    7    8 1
  15    7   33 1
  16    8   25 1
  17    8    9 2
  18    9   10 1
  19   10   11 1
  20   10   20 2
  21   11   19 ar
  22   11   12 ar
  23   12   13 ar
  24   12   34 1
  25   13   17 ar
  26   13   14 2
  27   14   15 1
  28   15   16 1
  29   15   35 1
  30   16   17 2
  31   16   36 1
  32   17   18 ar
  33   18   19 ar
  34   18   37 1
  35   19   38 1
  36   20   21 1
  37   20   39 1
  38   21   25 1
  39   21   22 1
  40   22   23 2
  41   22   40 1
  42   23   24 1
  43   23   41 1
  44   24   25 2
  45   26   27 ar
  46   26   42 1
  47   27   43 1
