@<TRIPOS>MOLECULE
ZINC000028520782
46    49    1     0     0
SMALL
USER_CHARGES
@<TRIPOS>ATOM
1      N1     -0.3295   -0.6094    0.0693 N.1      1 ZINC000028520782   -0.4100
2      C2     -0.1451    0.3379   -0.5301 C.1      1 ZINC000028520782    0.4100
3      N3      0.0748    1.4677   -1.2451 N.pl3    1 ZINC000028520782   -0.6100
4      C4      1.2795    2.1698   -1.0941 C.ar     1 ZINC000028520782    0.1300
5      C5      2.2481    1.7052   -0.2175 C.ar     1 ZINC000028520782   -0.1000
6      C6      3.4355    2.3963   -0.0679 C.ar     1 ZINC000028520782   -0.0900
7      C7      3.6622    3.5577   -0.7946 C.ar     1 ZINC000028520782    0.1800
8      N8      4.8663    4.2554   -0.6406 N.pl3    1 ZINC000028520782   -0.6300
9      C9      6.0409    3.5639   -0.3956 C.ar     1 ZINC000028520782    0.6200
10     N10     6.0259    2.2392   -0.4120 N.ar     1 ZINC000028520782   -0.5800
11     C11     7.1296    1.5426   -0.1826 C.ar     1 ZINC000028520782    0.2800
12     C12     8.3094    2.2119    0.0767 C.ar     1 ZINC000028520782   -0.4000
13     C13     9.5840    1.4526    0.3415 C.3      1 ZINC000028520782    0.5300
14     F14     9.3309    0.0784    0.2732 F        1 ZINC000028520782   -0.1700
15     F15    10.5410    1.7988   -0.6184 F        1 ZINC000028520782   -0.1800
16     F16    10.0632    1.7758    1.6155 F        1 ZINC000028520782   -0.1800
17     C17     8.2947    3.6087    0.0874 C.ar     1 ZINC000028520782    0.5200
18     N18     9.4552    4.3223    0.3425 N.pl3    1 ZINC000028520782   -0.6400
19     C19     9.4073    5.7162    0.4653 C.ar     1 ZINC000028520782    0.1400
20     C20     8.2756    6.3258    1.0032 C.ar     1 ZINC000028520782   -0.0900
21     C21     8.2160    7.6965    1.1299 C.ar     1 ZINC000028520782   -0.0900
22     C22     9.2880    8.4770    0.7201 C.ar     1 ZINC000028520782    0.0400
23     N23     9.5371    9.8370    0.7110 N.pl3    1 ZINC000028520782   -0.6000
24     C24    10.7775   10.0171    0.1834 C.2      1 ZINC000028520782    0.2700
25     N25    11.3021    8.8682   -0.1293 N.2      1 ZINC000028520782   -0.5000
26     C26    10.4330    7.8705    0.1766 C.ar     1 ZINC000028520782    0.0700
27     C27    10.4852    6.4796    0.0575 C.ar     1 ZINC000028520782   -0.0900
28     N28     7.1525    4.2434   -0.1560 N.ar     1 ZINC000028520782   -0.6000
29     C29     2.6960    4.0273   -1.6742 C.ar     1 ZINC000028520782   -0.1500
30     C30     1.5065    3.3330   -1.8298 C.ar     1 ZINC000028520782    0.1700
31     N31     0.5303    3.8039   -2.7164 N.pl3    1 ZINC000028520782   -0.6100
32     C32     0.7480    4.9393   -3.4232 C.1      1 ZINC000028520782    0.4100
33     N33     0.9305    5.8912   -4.0157 N.1      1 ZINC000028520782   -0.4100
34     H34    -0.5993    1.7887   -1.8643 H        1 ZINC000028520782    0.4300
35     H35     2.0743    0.8024    0.3492 H        1 ZINC000028520782    0.1400
36     H36     4.1884    2.0327    0.6157 H        1 ZINC000028520782    0.1500
37     H37     4.8778    5.2232   -0.7056 H        1 ZINC000028520782    0.4300
38     H38     7.1066    0.4629   -0.1979 H        1 ZINC000028520782    0.1900
39     H39    10.3006    3.8560    0.4360 H        1 ZINC000028520782    0.4200
40     H40     7.4402    5.7203    1.3224 H        1 ZINC000028520782    0.1400
41     H41     7.3359    8.1630    1.5473 H        1 ZINC000028520782    0.1300
42     H42     8.9382   10.5334    1.0229 H        1 ZINC000028520782    0.4300
43     H43    11.2573   10.9746    0.0439 H        1 ZINC000028520782    0.2200
44     H44    11.3625    6.0030   -0.3544 H        1 ZINC000028520782    0.1300
45     H45     2.8727    4.9304   -2.2395 H        1 ZINC000028520782    0.1400
46     H46    -0.3018    3.3173   -2.8247 H        1 ZINC000028520782    0.4300
@<TRIPOS>BOND
1     1     2     3
2     2     3     1
3     3     4     1
4     3     34    1
5     4     30    ar
6     4     5     ar
7     5     6     ar
8     5     35    1
9     6     7     ar
10    6     36    1
11    7     8     1
12    7     29    ar
13    8     9     1
14    8     37    1
15    9     28    ar
16    9     10    ar
17    10    11    ar
18    11    12    ar
19    11    38    1
20    12    13    1
21    12    17    ar
22    13    14    1
23    13    15    1
24    13    16    1
25    17    18    1
26    17    28    ar
27    18    19    1
28    18    39    1
29    19    27    ar
30    19    20    ar
31    20    21    ar
32    20    40    1
33    21    22    ar
34    21    41    1
35    22    26    ar
36    22    23    1
37    23    24    1
38    23    42    1
39    24    25    2
40    24    43    1
41    25    26    1
42    26    27    ar
43    27    44    1
44    29    30    ar
45    29    45    1
46    30    31    1
47    31    32    1
48    31    46    1
49    32    33    3
@<TRIPOS>SUBSTRUCTURE
1   ZINC000028520782 1     RESIDUE    1   A     ZIN   1
