@<TRIPOS>MOLECULE
ZINC000005648660
29    29    1     0     0
SMALL
USER_CHARGES
@<TRIPOS>ATOM
1      C1     -1.0213    2.1131    0.3537 C.3      1 ZINC000005648660   -0.0900
2      C2     -1.1813    0.6648   -0.0312 C.2      1 ZINC000005648660    0.1900
3      N3     -0.9664   -0.2673    0.8460 N.2      1 ZINC000005648660   -0.2600
4      N4     -1.1265   -1.6132    0.4915 N.am     1 ZINC000005648660   -0.5400
5      C5     -1.0253   -2.5742    1.4310 C.2      1 ZINC000005648660    0.5800
6      S6     -1.3321   -4.2079    1.0211 S.2      1 ZINC000005648660   -0.6300
7      N7     -0.6826   -2.2492    2.6933 N.am     1 ZINC000005648660   -0.5500
8      C8     -0.6042   -3.2893    3.7220 C.3      1 ZINC000005648660    0.0900
9      C9     -0.3885   -0.8557    3.0367 C.3      1 ZINC000005648660    0.0600
10     C10    -1.5819    0.3069   -1.4040 C.ar     1 ZINC000005648660    0.1000
11     C11    -2.7156   -0.4816   -1.6119 C.ar     1 ZINC000005648660   -0.1600
12     C12    -3.0782   -0.8083   -2.9064 C.ar     1 ZINC000005648660   -0.0600
13     C13    -2.2974   -0.3372   -3.9529 C.ar     1 ZINC000005648660   -0.1500
14     C14    -1.1869    0.4397   -3.6759 C.ar     1 ZINC000005648660    0.1100
15     N15    -0.8644    0.7417   -2.4353 N.ar     1 ZINC000005648660   -0.4500
16     H16     0.0056    2.4273    0.1672 H        1 ZINC000005648660    0.1000
17     H17    -1.7017    2.7240   -0.2396 H        1 ZINC000005648660    0.0900
18     H18    -1.2522    2.2354    1.4119 H        1 ZINC000005648660    0.0900
19     H19    -1.3102   -1.8535   -0.4301 H        1 ZINC000005648660    0.4200
20     H20     0.1377   -4.0330    3.4309 H        1 ZINC000005648660    0.0800
21     H21    -0.3147   -2.8398    4.6719 H        1 ZINC000005648660    0.0800
22     H22    -1.5771   -3.7690    3.8286 H        1 ZINC000005648660    0.0800
23     H23    -1.3208   -0.3236    3.2261 H        1 ZINC000005648660    0.0700
24     H24     0.2351   -0.8255    3.9302 H        1 ZINC000005648660    0.0700
25     H25     0.1390   -0.3811    2.2093 H        1 ZINC000005648660    0.1100
26     H26    -3.3005   -0.8317   -0.7743 H        1 ZINC000005648660    0.1400
27     H27    -3.9496   -1.4167   -3.0986 H        1 ZINC000005648660    0.1500
28     H28    -2.5544   -0.5754   -4.9744 H        1 ZINC000005648660    0.1500
29     H29    -0.5779    0.8069   -4.4888 H        1 ZINC000005648660    0.1700
@<TRIPOS>BOND
1     1     2     1
2     1     16    1
3     1     17    1
4     1     18    1
5     2     3     2
6     2     10    1
7     3     4     1
8     4     5     am
9     4     19    1
10    5     6     2
11    5     7     am
12    7     8     1
13    7     9     1
14    8     20    1
15    8     21    1
16    8     22    1
17    9     23    1
18    9     24    1
19    9     25    1
20    10    15    ar
21    10    11    ar
22    11    12    ar
23    11    26    1
24    12    13    ar
25    12    27    1
26    13    14    ar
27    13    28    1
28    14    15    ar
29    14    29    1
@<TRIPOS>SUBSTRUCTURE
1   ZINC000005648660 1     RESIDUE    1   A     ZIN   1
