@<TRIPOS>MOLECULE
ZINC000008386970
53    58    1     0     0
SMALL
USER_CHARGES
@<TRIPOS>ATOM
1      C1      0.0154    1.4399    0.0157 C.3      1 ZINC000008386970    0.0200
2      O2      0.0232    0.0110    0.0053 O.3      1 ZINC000008386970   -0.3100
3      C3      0.6223   -0.5948   -1.0525 C.ar     1 ZINC000008386970    0.1500
4      C4      1.1962    0.1739   -2.0572 C.ar     1 ZINC000008386970   -0.2200
5      C5      1.8050   -0.4371   -3.1320 C.ar     1 ZINC000008386970   -0.0300
6      C6      1.8449   -1.8304   -3.2101 C.ar     1 ZINC000008386970   -0.0800
7      C7      2.4979   -2.4902   -4.3621 C.2      1 ZINC000008386970    0.2400
8      C8      3.3027   -3.6353   -4.3114 C.2      1 ZINC000008386970    0.0800
9      N9      3.6279   -4.3409   -3.2215 N.2      1 ZINC000008386970   -0.0700
10     N10     4.4630   -5.3199   -3.3124 N.2      1 ZINC000008386970   -0.2800
11     C11     4.7148   -6.0956   -2.2347 C.2      1 ZINC000008386970    0.4200
12     N12     4.2363   -5.8929   -1.0264 N.2      1 ZINC000008386970   -0.4600
13     C13     4.6855   -6.8519   -0.1918 C.ar     1 ZINC000008386970    0.0500
14     C14     4.4894   -7.1073    1.1702 C.ar     1 ZINC000008386970   -0.0600
15     C15     5.0922   -8.1850    1.7544 C.ar     1 ZINC000008386970   -0.1300
16     C16     5.9001   -9.0336    1.0113 C.ar     1 ZINC000008386970   -0.0900
17     C17     6.1084   -8.8023   -0.3329 C.ar     1 ZINC000008386970   -0.1100
18     C18     5.5052   -7.7133   -0.9449 C.ar     1 ZINC000008386970    0.0600
19     N19     5.5041   -7.2184   -2.2353 N.pl3    1 ZINC000008386970   -0.4700
20     C20     6.2132   -7.7840   -3.3857 C.3      1 ZINC000008386970    0.0800
21     N21     3.6939   -3.8920   -5.6155 N.pl3    1 ZINC000008386970   -0.3800
22     C22     4.4806   -4.8807   -6.1453 C.2      1 ZINC000008386970    0.0700
23     C23     4.7499   -4.9638   -7.4568 C.2      1 ZINC000008386970   -0.1200
24     C24     4.1918   -3.9704   -8.3749 C.ar     1 ZINC000008386970   -0.0300
25     C25     4.4404   -4.0115   -9.7477 C.ar     1 ZINC000008386970   -0.1000
26     C26     3.8929   -3.0574  -10.5602 C.ar     1 ZINC000008386970   -0.0900
27     C27     3.0939   -2.0487  -10.0380 C.ar     1 ZINC000008386970   -0.1100
28     C28     2.8331   -1.9832   -8.6971 C.ar     1 ZINC000008386970   -0.0700
29     C29     3.3776   -2.9431   -7.8438 C.ar     1 ZINC000008386970   -0.0300
30     C30     3.1316   -2.9231   -6.3975 C.2      1 ZINC000008386970    0.3000
31     N31     2.4216   -2.1050   -5.6368 N.2      1 ZINC000008386970   -0.4700
32     C32     1.2674   -2.5996   -2.1982 C.ar     1 ZINC000008386970   -0.0300
33     C33     0.6647   -1.9814   -1.1241 C.ar     1 ZINC000008386970   -0.1500
34     H34     1.0410    1.8089    0.0092 H        1 ZINC000008386970    0.0600
35     H35    -0.5083    1.8068   -0.8671 H        1 ZINC000008386970    0.0600
36     H36    -0.4925    1.7940    0.9128 H        1 ZINC000008386970    0.1000
37     H37     1.1650    1.2517   -1.9961 H        1 ZINC000008386970    0.1300
38     H38     2.2504    0.1612   -3.9131 H        1 ZINC000008386970    0.1300
39     H39     3.8629   -6.4532    1.7584 H        1 ZINC000008386970    0.1300
40     H40     4.9385   -8.3783    2.8058 H        1 ZINC000008386970    0.1300
41     H41     6.3697   -9.8811    1.4886 H        1 ZINC000008386970    0.1300
42     H42     6.7380   -9.4665   -0.9062 H        1 ZINC000008386970    0.1200
43     H43     5.5399   -8.4351   -3.9433 H        1 ZINC000008386970    0.0800
44     H44     6.5573   -6.9773   -4.0329 H        1 ZINC000008386970    0.0900
45     H45     7.0699   -8.3605   -3.0368 H        1 ZINC000008386970    0.0900
46     H46     4.9006   -5.6216   -5.4812 H        1 ZINC000008386970    0.1700
47     H47     5.3755   -5.7597   -7.8331 H        1 ZINC000008386970    0.1600
48     H48     5.0608   -4.7908  -10.1652 H        1 ZINC000008386970    0.1400
49     H49     4.0848   -3.0886  -11.6225 H        1 ZINC000008386970    0.1300
50     H50     2.6732   -1.3059  -10.6996 H        1 ZINC000008386970    0.1400
51     H51     2.2100   -1.1945   -8.3019 H        1 ZINC000008386970    0.1400
52     H52     1.2964   -3.6777   -2.2552 H        1 ZINC000008386970    0.1400
53     H53     0.2180   -2.5757   -0.3407 H        1 ZINC000008386970    0.1400
@<TRIPOS>BOND
1     1     2     1
2     1     34    1
3     1     35    1
4     1     36    1
5     2     3     1
6     3     33    ar
7     3     4     ar
8     4     5     ar
9     4     37    1
10    5     6     ar
11    5     38    1
12    6     7     1
13    6     32    ar
14    7     31    1
15    7     8     2
16    8     9     1
17    8     21    1
18    9     10    2
19    10    11    1
20    11    19    1
21    11    12    2
22    12    13    1
23    13    18    ar
24    13    14    ar
25    14    15    ar
26    14    39    1
27    15    16    ar
28    15    40    1
29    16    17    ar
30    16    41    1
31    17    18    ar
32    17    42    1
33    18    19    1
34    19    20    1
35    20    43    1
36    20    44    1
37    20    45    1
38    21    30    1
39    21    22    1
40    22    23    2
41    22    46    1
42    23    24    1
43    23    47    1
44    24    29    ar
45    24    25    ar
46    25    26    ar
47    25    48    1
48    26    27    ar
49    26    49    1
50    27    28    ar
51    27    50    1
52    28    29    ar
53    28    51    1
54    29    30    1
55    30    31    2
56    32    33    ar
57    32    52    1
58    33    53    1
@<TRIPOS>SUBSTRUCTURE
1   ZINC000008386970 1     RESIDUE    1   A     ZIN   1
