@<TRIPOS>MOLECULE
ZINC000003873285
35    37    1     0     0
SMALL
USER_CHARGES
@<TRIPOS>ATOM
1      N1     -0.0167    1.3817    0.0096 N.pl3    1 ZINC000003873285   -0.8200
2      C2      0.0021   -0.0041    0.0020 C.ar     1 ZINC000003873285    0.6100
3      N3     -1.1515   -0.6601    0.0041 N.ar     1 ZINC000003873285   -0.6100
4      C4     -1.1850   -1.9879   -0.0030 C.ar     1 ZINC000003873285    0.4500
5      O5     -2.3677   -2.6496   -0.0012 O.3      1 ZINC000003873285   -0.3000
6      C6     -3.5555   -1.8551    0.0084 C.3      1 ZINC000003873285    0.0700
7      C7     -4.7814   -2.7706    0.0090 C.3      1 ZINC000003873285   -0.0900
8      C8     -4.8194   -3.5713    1.3122 C.3      1 ZINC000003873285   -0.1100
9      C9     -6.0453   -4.4868    1.3128 C.3      1 ZINC000003873285   -0.1200
10     C10    -7.3143   -3.6399    1.1974 C.3      1 ZINC000003873285   -0.1200
11     C11    -7.2763   -2.8392   -0.1059 C.3      1 ZINC000003873285   -0.1200
12     C12    -6.0504   -1.9237   -0.1064 C.3      1 ZINC000003873285   -0.1100
13     C13     0.0207   -2.6872   -0.0126 C.ar     1 ZINC000003873285   -0.1400
14     N14     0.3795   -4.0209   -0.0216 N.pl3    1 ZINC000003873285   -0.5700
15     C15     1.7303   -4.0700   -0.0285 C.2      1 ZINC000003873285    0.3100
16     N16     2.2235   -2.8628   -0.0244 N.2      1 ZINC000003873285   -0.5000
17     C17     1.2237   -1.9612   -0.0146 C.ar     1 ZINC000003873285    0.3600
18     N18     1.1680   -0.6258   -0.0125 N.ar     1 ZINC000003873285   -0.5600
19     H19     0.8166    1.8781    0.0043 H        1 ZINC000003873285    0.4200
20     H20    -0.8633    1.8552    0.0162 H        1 ZINC000003873285    0.4200
21     H21    -3.5678   -1.2309    0.9019 H        1 ZINC000003873285    0.0700
22     H22    -3.5758   -1.2212   -0.8780 H        1 ZINC000003873285    0.0700
23     H23    -4.7236   -3.4557   -0.8368 H        1 ZINC000003873285    0.0800
24     H24    -3.9153   -4.1746    1.3944 H        1 ZINC000003873285    0.0700
25     H25    -4.8771   -2.8862    2.1580 H        1 ZINC000003873285    0.0600
26     H26    -5.9875   -5.1719    0.4670 H        1 ZINC000003873285    0.0600
27     H27    -6.0723   -5.0572    2.2412 H        1 ZINC000003873285    0.0600
28     H28    -8.1876   -4.2921    1.1978 H        1 ZINC000003873285    0.0600
29     H29    -7.3720   -2.9548    2.0432 H        1 ZINC000003873285    0.0600
30     H30    -7.2185   -3.5243   -0.9517 H        1 ZINC000003873285    0.0600
31     H31    -8.1803   -2.2359   -0.1881 H        1 ZINC000003873285    0.0700
32     H32    -6.1082   -1.2386    0.7394 H        1 ZINC000003873285    0.0700
33     H33    -6.0233   -1.3533   -1.0348 H        1 ZINC000003873285    0.0700
34     H34    -0.2245   -4.7798   -0.0223 H        1 ZINC000003873285    0.4300
35     H35     2.3161   -4.9774   -0.0363 H        1 ZINC000003873285    0.2300
@<TRIPOS>BOND
1     1     2     1
2     1     19    1
3     1     20    1
4     2     18    ar
5     2     3     ar
6     3     4     ar
7     4     5     1
8     4     13    ar
9     5     6     1
10    6     7     1
11    6     21    1
12    6     22    1
13    7     12    1
14    7     8     1
15    7     23    1
16    8     9     1
17    8     24    1
18    8     25    1
19    9     10    1
20    9     26    1
21    9     27    1
22    10    11    1
23    10    28    1
24    10    29    1
25    11    12    1
26    11    30    1
27    11    31    1
28    12    32    1
29    12    33    1
30    13    17    ar
31    13    14    1
32    14    15    1
33    14    34    1
34    15    16    2
35    15    35    1
36    16    17    1
37    17    18    ar
@<TRIPOS>SUBSTRUCTURE
1   ZINC000003873285 1     RESIDUE    1   A     ZIN   1
