@<TRIPOS>MOLECULE
ZINC000096269677
73    77    1     0     0
SMALL
USER_CHARGES
@<TRIPOS>ATOM
1      C1      0.7375   -0.8178    0.5559 C.3      1 ZINC000096269677   -0.1800
2      C2      1.2423   -2.0572   -0.1858 C.3      1 ZINC000096269677   -0.0800
3      C3      2.5116   -2.5759    0.4928 C.3      1 ZINC000096269677   -0.1600
4      C4      0.1661   -3.1443   -0.1537 C.3      1 ZINC000096269677   -0.1400
5      C5      1.5538   -1.6907   -1.6383 C.3      1 ZINC000096269677   -0.1400
6      C6      2.7402   -0.7254   -1.6775 C.3      1 ZINC000096269677    0.0500
7      H7      3.5378   -1.0767   -1.0227 H        1 ZINC000096269677    0.1700
8      N8      2.3100    0.6435   -1.2844 N.4      1 ZINC000096269677   -0.5100
9      H9      1.6368    0.5995   -0.5340 H        1 ZINC000096269677    0.4400
10     H10     3.1069    1.1985   -1.0108 H        1 ZINC000096269677    0.4400
11     C11     1.6834    1.1999   -2.5122 C.3      1 ZINC000096269677    0.0000
12     H12     0.6658    0.8252   -2.6228 H        1 ZINC000096269677    0.1700
13     C13     1.6854    2.7062   -2.4667 C.2      1 ZINC000096269677    0.5100
14     O14     2.4328    3.2891   -1.7100 O.2      1 ZINC000096269677   -0.5200
15     N15     0.8566    3.4057   -3.2669 N.am     1 ZINC000096269677   -0.6900
16     C16     0.8585    4.8700   -3.2227 C.3      1 ZINC000096269677    0.1400
17     C17     1.9593    5.4065   -4.1400 C.3      1 ZINC000096269677   -0.1300
18     C18     1.9613    6.9358   -4.0938 C.3      1 ZINC000096269677   -0.1100
19     C19     0.6039    7.4620   -4.5643 C.3      1 ZINC000096269677    0.1000
20     O20     0.3622    7.0262   -5.9036 O.3      1 ZINC000096269677   -0.5600
21     C21    -0.4969    6.9255   -3.6470 C.3      1 ZINC000096269677   -0.1500
22     C22    -0.4989    5.3962   -3.6932 C.3      1 ZINC000096269677   -0.1200
23     C23     2.5738    0.6918   -3.6696 C.3      1 ZINC000096269677   -0.0200
24     H24     3.3193    1.4422   -3.9328 H        1 ZINC000096269677    0.1400
25     C25     1.7296    0.3485   -4.8698 C.ar     1 ZINC000096269677   -0.1500
26     C26     0.4887   -0.2349   -4.6977 C.ar     1 ZINC000096269677   -0.0500
27     C27    -0.2869   -0.5499   -5.7982 C.ar     1 ZINC000096269677   -0.1000
28     C28     0.1778   -0.2823   -7.0721 C.ar     1 ZINC000096269677   -0.0600
29     C29     1.4196    0.3011   -7.2473 C.ar     1 ZINC000096269677   -0.0800
30     Cl30    2.0038    0.6369   -8.8472 Cl       1 ZINC000096269677   -0.0300
31     C31     2.1946    0.6226   -6.1447 C.ar     1 ZINC000096269677    0.1400
32     F32     3.4078    1.1924   -6.3138 F        1 ZINC000096269677   -0.1200
33     C33     3.2561   -0.5679   -3.1140 C.3      1 ZINC000096269677   -0.0600
34     C34     2.9394   -1.7787   -3.9485 C.2      1 ZINC000096269677    0.5500
35     O35     1.8380   -2.2314   -4.1789 O.2      1 ZINC000096269677   -0.4500
36     N36     4.1162   -2.2622   -4.3909 N.am     1 ZINC000096269677   -0.6500
37     C37     5.1996   -1.5039   -3.9418 C.ar     1 ZINC000096269677    0.1800
38     C38     6.5667   -1.6516   -4.1604 C.ar     1 ZINC000096269677   -0.1200
39     C39     7.4600   -0.7600   -3.6002 C.ar     1 ZINC000096269677    0.0200
40     Cl40    9.1627   -0.9528   -3.8785 Cl       1 ZINC000096269677   -0.0300
41     C41     7.0042    0.2868   -2.8184 C.ar     1 ZINC000096269677   -0.1200
42     C42     5.6469    0.4402   -2.5968 C.ar     1 ZINC000096269677   -0.0500
43     C43     4.7532   -0.4470   -3.1530 C.ar     1 ZINC000096269677   -0.1700
44     H44     1.5878   -0.2359    0.9116 H        1 ZINC000096269677    0.0600
45     H45     0.1378   -0.2087   -0.1205 H        1 ZINC000096269677    0.0600
46     H46     0.1274   -1.1259    1.4050 H        1 ZINC000096269677    0.1000
47     H47     2.2897   -2.8370    1.5275 H        1 ZINC000096269677    0.0800
48     H48     2.8712   -3.4589   -0.0356 H        1 ZINC000096269677    0.0700
49     H49     3.2783   -1.8015    0.4699 H        1 ZINC000096269677    0.0500
50     H50    -0.7382   -2.7747   -0.6372 H        1 ZINC000096269677    0.0600
51     H51     0.5257   -4.0272   -0.6821 H        1 ZINC000096269677    0.0700
52     H52    -0.0558   -3.4054    0.8810 H        1 ZINC000096269677    0.0700
53     H53     1.8017   -2.5939   -2.1957 H        1 ZINC000096269677    0.1300
54     H54     0.6826   -1.2140   -2.0876 H        1 ZINC000096269677    0.0900
55     H55     0.2588    2.9395   -3.8721 H        1 ZINC000096269677    0.4100
56     H56     1.0428    5.2024   -2.2011 H        1 ZINC000096269677    0.1000
57     H57     2.9263    5.0316   -3.8048 H        1 ZINC000096269677    0.0700
58     H58     1.7750    5.0740   -5.1616 H        1 ZINC000096269677    0.0800
59     H59     2.1456    7.2682   -3.0722 H        1 ZINC000096269677    0.0800
60     H60     2.7455    7.3180   -4.7473 H        1 ZINC000096269677    0.0800
61     H61     0.6053    8.5515   -4.5314 H        1 ZINC000096269677    0.0600
62     H62    -0.4828    7.3238   -6.2677 H        1 ZINC000096269677    0.3800
63     H63    -0.3126    7.2579   -2.6254 H        1 ZINC000096269677    0.0800
64     H64    -1.4640    7.3004   -3.9822 H        1 ZINC000096269677    0.0800
65     H65    -0.6832    5.0638   -4.7148 H        1 ZINC000096269677    0.0800
66     H66    -1.2831    5.0140   -3.0397 H        1 ZINC000096269677    0.0700
67     H67     0.1245   -0.4452   -3.7030 H        1 ZINC000096269677    0.1400
68     H68    -1.2565   -1.0057   -5.6623 H        1 ZINC000096269677    0.1500
69     H69    -0.4288   -0.5291   -7.9310 H        1 ZINC000096269677    0.1500
70     H70     4.2013   -3.0462   -4.9558 H        1 ZINC000096269677    0.4300
71     H71     6.9296   -2.4663   -4.7695 H        1 ZINC000096269677    0.1500
72     H72     7.7060    0.9822   -2.3820 H        1 ZINC000096269677    0.1500
73     H73     5.2885    1.2561   -1.9867 H        1 ZINC000096269677    0.1400
@<TRIPOS>BOND
1     1     2     1
2     1     44    1
3     1     45    1
4     1     46    1
5     2     3     1
6     2     4     1
7     2     5     1
8     3     47    1
9     3     48    1
10    3     49    1
11    4     50    1
12    4     51    1
13    4     52    1
14    5     6     1
15    5     53    1
16    5     54    1
17    6     7     1
18    6     33    1
19    6     8     1
20    8     9     1
21    8     10    1
22    8     11    1
23    11    12    1
24    11    13    1
25    11    23    1
26    13    14    2
27    13    15    am
28    15    16    1
29    15    55    1
30    16    22    1
31    16    17    1
32    16    56    1
33    17    18    1
34    17    57    1
35    17    58    1
36    18    19    1
37    18    59    1
38    18    60    1
39    19    20    1
40    19    21    1
41    19    61    1
42    20    62    1
43    21    22    1
44    21    63    1
45    21    64    1
46    22    65    1
47    22    66    1
48    23    24    1
49    23    25    1
50    23    33    1
51    25    31    ar
52    25    26    ar
53    26    27    ar
54    26    67    1
55    27    28    ar
56    27    68    1
57    28    29    ar
58    28    69    1
59    29    30    1
60    29    31    ar
61    31    32    1
62    33    43    1
63    33    34    1
64    34    35    2
65    34    36    am
66    36    37    1
67    36    70    1
68    37    43    ar
69    37    38    ar
70    38    39    ar
71    38    71    1
72    39    40    1
73    39    41    ar
74    41    42    ar
75    41    72    1
76    42    43    ar
77    42    73    1
@<TRIPOS>SUBSTRUCTURE
1   ZINC000096269677 1     RESIDUE    1   A     ZIN   1
