@<TRIPOS>MOLECULE
ZINC000034299752
55    58    1     0     0
SMALL
USER_CHARGES
@<TRIPOS>ATOM
1      C1      0.8808    1.4781    0.2589 C.3      1 ZINC000034299752    0.0200
2      N2      0.8024    0.0116    0.2264 N.3      1 ZINC000034299752   -0.5400
3      C3     -0.5950   -0.4402    0.1910 C.3      1 ZINC000034299752    0.0400
4      C4     -0.6326   -1.9569   -0.0244 C.3      1 ZINC000034299752    0.1200
5      N5      0.2017   -2.5959    1.0046 N.am     1 ZINC000034299752   -1.0000
6      S6     -0.3884   -3.8388    1.9262 S.o2     1 ZINC000034299752    2.6900
7      O7      0.3813   -3.8531    3.1207 O.2      1 ZINC000034299752   -0.9500
8      O8     -1.8035   -3.7099    1.9150 O.2      1 ZINC000034299752   -0.9500
9      C9     -0.0186   -5.3382    1.0780 C.ar     1 ZINC000034299752   -0.6700
10     C10    -0.9199   -5.8528    0.1635 C.ar     1 ZINC000034299752   -0.0100
11     C11    -0.6353   -7.0267   -0.5041 C.ar     1 ZINC000034299752   -0.1300
12     C12     0.5628   -7.6938   -0.2555 C.ar     1 ZINC000034299752    0.0300
13     C13     0.8746   -8.9556   -0.9703 C.ar     1 ZINC000034299752    0.0300
14     C14     0.0183   -9.4188   -1.9741 C.ar     1 ZINC000034299752    0.1700
15     N15     0.2903  -10.5401   -2.6131 N.ar     1 ZINC000034299752   -0.5000
16     C16     1.3803  -11.2346   -2.3051 C.ar     1 ZINC000034299752    0.4200
17     N17     1.6652  -12.4094   -2.9754 N.pl3    1 ZINC000034299752   -0.8000
18     C18     2.2431  -10.7723   -1.2970 C.ar     1 ZINC000034299752   -0.0500
19     C19     3.4566  -11.5402   -0.9509 C.2      1 ZINC000034299752    0.6000
20     O20     3.7616  -12.5210   -1.6015 O.2      1 ZINC000034299752   -0.5200
21     N21     4.2258  -11.1535    0.0861 N.am     1 ZINC000034299752   -0.6400
22     C22     5.4362  -11.8064    0.3405 C.ar     1 ZINC000034299752    0.0900
23     C23     6.1263  -12.4420   -0.6886 C.ar     1 ZINC000034299752   -0.0900
24     C24     7.3210  -13.0751   -0.3870 C.ar     1 ZINC000034299752   -0.1500
25     C25     7.7856  -13.0557    0.9148 C.ar     1 ZINC000034299752    0.0800
26     N26     7.1081  -12.4447    1.8672 N.ar     1 ZINC000034299752   -0.4600
27     C27     5.9708  -11.8256    1.6226 C.ar     1 ZINC000034299752    0.0800
28     N28     1.9672   -9.6390   -0.6600 N.ar     1 ZINC000034299752   -0.3600
29     C29     1.4672   -7.1707    0.6670 C.ar     1 ZINC000034299752   -0.1100
30     C30     1.1744   -5.9933    1.3249 C.ar     1 ZINC000034299752   -0.0200
31     C31     1.5742   -2.1020    1.1931 C.3      1 ZINC000034299752    0.1200
32     C32     1.5250   -0.5795    1.3606 C.3      1 ZINC000034299752    0.0400
33     H33     1.9248    1.7873    0.2076 H        1 ZINC000034299752    0.0700
34     H34     0.3377    1.8899   -0.5917 H        1 ZINC000034299752    0.0700
35     H35     0.4382    1.8452    1.1849 H        1 ZINC000034299752    0.0300
36     H36    -1.0806   -0.1949    1.1355 H        1 ZINC000034299752    0.0400
37     H37    -1.1172    0.0564   -0.6267 H        1 ZINC000034299752    0.0900
38     H38    -1.6589   -2.3138    0.0628 H        1 ZINC000034299752    0.1000
39     H39    -0.2416   -2.1961   -1.0133 H        1 ZINC000034299752    0.0800
40     H40    -1.8482   -5.3352   -0.0282 H        1 ZINC000034299752    0.1500
41     H41    -1.3398   -7.4277   -1.2177 H        1 ZINC000034299752    0.1400
42     H42    -0.8687   -8.8569   -2.2266 H        1 ZINC000034299752    0.1800
43     H43     1.0324  -12.7669   -3.6179 H        1 ZINC000034299752    0.4100
44     H44     2.4978  -12.8763   -2.8033 H        1 ZINC000034299752    0.4300
45     H45     3.9400  -10.4224    0.6559 H        1 ZINC000034299752    0.4300
46     H46     5.7394  -12.4416   -1.6970 H        1 ZINC000034299752    0.1500
47     H47     7.8828  -13.5784   -1.1600 H        1 ZINC000034299752    0.1400
48     H48     8.7163  -13.5481    1.1554 H        1 ZINC000034299752    0.1600
49     H49     5.4445  -11.3359    2.4286 H        1 ZINC000034299752    0.1600
50     H50     2.3970   -7.6837    0.8638 H        1 ZINC000034299752    0.1400
51     H51     1.8745   -5.5870    2.0399 H        1 ZINC000034299752    0.1400
52     H52     2.0070   -2.5547    2.0852 H        1 ZINC000034299752    0.1000
53     H53     2.1774   -2.3551    0.3212 H        1 ZINC000034299752    0.0800
54     H54     2.5402   -0.1840    1.3910 H        1 ZINC000034299752    0.0900
55     H55     1.0099   -0.3322    2.2888 H        1 ZINC000034299752    0.0400
@<TRIPOS>BOND
1     1     2     1
2     1     33    1
3     1     34    1
4     1     35    1
5     2     32    1
6     2     3     1
7     3     4     1
8     3     36    1
9     3     37    1
10    4     5     1
11    4     38    1
12    4     39    1
13    5     6     am
14    5     31    1
15    6     7     2
16    6     8     2
17    6     9     1
18    9     30    ar
19    9     10    ar
20    10    11    ar
21    10    40    1
22    11    12    ar
23    11    41    1
24    12    13    1
25    12    29    ar
26    13    28    ar
27    13    14    ar
28    14    15    ar
29    14    42    1
30    15    16    ar
31    16    17    1
32    16    18    ar
33    17    43    1
34    17    44    1
35    18    19    1
36    18    28    ar
37    19    20    2
38    19    21    am
39    21    22    1
40    21    45    1
41    22    27    ar
42    22    23    ar
43    23    24    ar
44    23    46    1
45    24    25    ar
46    24    47    1
47    25    26    ar
48    25    48    1
49    26    27    ar
50    27    49    1
51    29    30    ar
52    29    50    1
53    30    51    1
54    31    32    1
55    31    52    1
56    31    53    1
57    32    54    1
58    32    55    1
@<TRIPOS>SUBSTRUCTURE
1   ZINC000034299752 1     RESIDUE    1   A     ZIN   1
