@<TRIPOS>MOLECULE
ZINC000002388377
58    61    1     0     0
SMALL
USER_CHARGES
@<TRIPOS>ATOM
1      C1     -0.0992    1.4220   -0.0922 C.3      1 ZINC000002388377    0.0200
2      O2     -0.0152   -0.0040   -0.0522 O.3      1 ZINC000002388377   -0.3000
3      C3      0.6032   -0.6155   -1.0977 C.ar     1 ZINC000002388377    0.1400
4      C4      1.1279    0.1485   -2.1462 C.ar     1 ZINC000002388377   -0.1800
5      C5      1.7215   -0.4809   -3.1668 C.ar     1 ZINC000002388377   -0.0100
6      C6      1.8111   -1.9071   -3.2513 C.ar     1 ZINC000002388377   -0.1000
7      C7      1.3202   -2.6539   -2.1988 C.ar     1 ZINC000002388377    0.1500
8      O8      1.4257   -4.0095   -2.2089 O.3      1 ZINC000002388377   -0.3200
9      C9      0.3269   -4.7417   -2.7552 C.3      1 ZINC000002388377    0.0400
10     C10     0.7206   -2.0016   -1.1241 C.ar     1 ZINC000002388377    0.0300
11     O11     0.2309   -2.7339   -0.0867 O.3      1 ZINC000002388377   -0.3200
12     C12     1.1180   -2.9864    1.0049 C.3      1 ZINC000002388377    0.0400
13     C13     2.3628   -2.4183   -4.5202 C.ar     1 ZINC000002388377   -0.0500
14     C14     1.6410   -2.0161   -5.6884 C.ar     1 ZINC000002388377   -0.0500
15     C15     2.0366   -2.3246   -6.9281 C.ar     1 ZINC000002388377   -0.0900
16     C16     3.1792   -3.1146   -7.0892 C.ar     1 ZINC000002388377    0.0500
17     O17     3.7969   -3.5769   -8.2133 O.3      1 ZINC000002388377   -0.3000
18     C18     5.1112   -3.9855   -7.7900 C.3      1 ZINC000002388377    0.2100
19     O19     4.9342   -4.3222   -6.4012 O.3      1 ZINC000002388377   -0.3000
20     C20     3.8812   -3.5623   -5.9734 C.ar     1 ZINC000002388377    0.0000
21     C21     3.4792   -3.2128   -4.6854 C.ar     1 ZINC000002388377    0.1500
22     O22     4.1790   -3.6492   -3.6043 O.3      1 ZINC000002388377   -0.3100
23     C23     5.2448   -2.8169   -3.1424 C.3      1 ZINC000002388377    0.0400
24     C24     0.3809   -1.3075   -5.1845 C.3      1 ZINC000002388377   -0.1200
25     C25     0.2770    0.1341   -5.7567 C.3      1 ZINC000002388377   -0.0700
26     H26     0.2839    0.0959   -6.8460 H        1 ZINC000002388377    0.0800
27     C27    -1.0214    0.7844   -5.2749 C.3      1 ZINC000002388377   -0.1300
28     C28     1.5207    0.9806   -5.2460 C.3      1 ZINC000002388377    0.1400
29     C29     2.2990    1.5210   -6.4473 C.3      1 ZINC000002388377   -0.1800
30     O30     1.0596    2.0713   -4.4461 O.3      1 ZINC000002388377   -0.5500
31     C31     2.4461    0.0681   -4.3965 C.3      1 ZINC000002388377   -0.1500
32     H32     0.9051    1.8443   -0.1261 H        1 ZINC000002388377    0.0600
33     H33    -0.6525    1.7287   -0.9799 H        1 ZINC000002388377    0.0600
34     H34    -0.6143    1.7807    0.7989 H        1 ZINC000002388377    0.1000
35     H35     1.0547    1.2259   -2.1320 H        1 ZINC000002388377    0.1500
36     H36    -0.5901   -4.4612   -2.2372 H        1 ZINC000002388377    0.0500
37     H37     0.2294   -4.5127   -3.8164 H        1 ZINC000002388377    0.0400
38     H38     0.5034   -5.8099   -2.6288 H        1 ZINC000002388377    0.1000
39     H39     1.9499   -3.6017    0.6622 H        1 ZINC000002388377    0.0500
40     H40     1.4998   -2.0405    1.3891 H        1 ZINC000002388377    0.0400
41     H41     0.5808   -3.5096    1.7960 H        1 ZINC000002388377    0.0900
42     H42     1.4850   -1.9713   -7.7868 H        1 ZINC000002388377    0.1500
43     H43     5.4425   -4.8562   -8.3559 H        1 ZINC000002388377    0.1300
44     H44     5.8206   -3.1650   -7.8976 H        1 ZINC000002388377    0.0800
45     H45     5.9804   -2.6939   -3.9373 H        1 ZINC000002388377    0.0500
46     H46     4.8482   -1.8416   -2.8604 H        1 ZINC000002388377    0.0500
47     H47     5.7189   -3.2804   -2.2772 H        1 ZINC000002388377    0.1000
48     H48    -0.4960   -1.8774   -5.4914 H        1 ZINC000002388377    0.0800
49     H49     0.4103   -1.2582   -4.0960 H        1 ZINC000002388377    0.1200
50     H50    -1.0247    0.8257   -4.1857 H        1 ZINC000002388377    0.0600
51     H51    -1.0926    1.7950   -5.6770 H        1 ZINC000002388377    0.0600
52     H52    -1.8719    0.1958   -5.6187 H        1 ZINC000002388377    0.0500
53     H53     1.6475    2.1580   -7.0455 H        1 ZINC000002388377    0.0700
54     H54     3.1521    2.1016   -6.0961 H        1 ZINC000002388377    0.0600
55     H55     2.6519    0.6885   -7.0559 H        1 ZINC000002388377    0.0700
56     H56     1.7674    2.6319   -4.0999 H        1 ZINC000002388377    0.3700
57     H57     3.3124    0.6441   -4.0713 H        1 ZINC000002388377    0.0700
58     H58     2.7852   -0.7656   -5.0113 H        1 ZINC000002388377    0.1200
@<TRIPOS>BOND
1     1     2     1
2     1     32    1
3     1     33    1
4     1     34    1
5     2     3     1
6     3     10    ar
7     3     4     ar
8     4     5     ar
9     4     35    1
10    5     31    1
11    5     6     ar
12    6     7     ar
13    6     13    1
14    7     8     1
15    7     10    ar
16    8     9     1
17    9     36    1
18    9     37    1
19    9     38    1
20    10    11    1
21    11    12    1
22    12    39    1
23    12    40    1
24    12    41    1
25    13    21    ar
26    13    14    ar
27    14    15    ar
28    14    24    1
29    15    16    ar
30    15    42    1
31    16    20    ar
32    16    17    1
33    17    18    1
34    18    19    1
35    18    43    1
36    18    44    1
37    19    20    1
38    20    21    ar
39    21    22    1
40    22    23    1
41    23    45    1
42    23    46    1
43    23    47    1
44    24    25    1
45    24    48    1
46    24    49    1
47    25    26    1
48    25    27    1
49    25    28    1
50    27    50    1
51    27    51    1
52    27    52    1
53    28    29    1
54    28    30    1
55    28    31    1
56    29    53    1
57    29    54    1
58    29    55    1
59    30    56    1
60    31    57    1
61    31    58    1
@<TRIPOS>SUBSTRUCTURE
1   ZINC000002388377 1     RESIDUE    1   A     ZIN   1
