@<TRIPOS>MOLECULE
ZINC000000898931
  39   41    0    0    0
SMALL
USER_CHARGES
NO_NAME
@<TRIPOS>ATOM
    1 C1        0.0497     1.5591    -0.1678 C.3    1 <0>       0.0200
    2 O2        0.1316     0.1349    -0.0836 O.3    1 <0>      -0.3000
    3 C3        0.6710    -0.5153    -1.1462 C.ar   1 <0>       0.2300
    4 C4        1.1166     0.2120    -2.2446 C.ar   1 <0>      -0.3300
    5 C5        1.6680    -0.4396    -3.3320 C.ar   1 <0>       0.2600
    6 O6        2.1038     0.2686    -4.4046 O.3    1 <0>      -0.2800
    7 C7        1.9627     1.6893    -4.3447 C.3    1 <0>       0.0200
    8 C8        1.7739    -1.8366    -3.3183 C.ar   1 <0>      -0.2900
    9 C9        2.3547    -2.5695    -4.4542 C.2    1 <0>       0.4100
   10 O10       2.7628    -1.9846    -5.4445 O.2    1 <0>      -0.4400
   11 C11       2.4223    -3.9849    -4.3526 C.2    1 <0>      -0.0800
   12 O12       2.9488    -4.7211    -5.3684 O.3    1 <0>      -0.3000
   13 C13       2.2349    -4.7225    -6.6063 C.3    1 <0>       0.0300
   14 C14       1.9563    -4.5986    -3.2302 C.2    1 <0>       0.1700
   15 C15       2.0339    -6.0697    -3.1406 C.ar   1 <0>      -0.0700
   16 C16       3.2219    -6.7306    -3.4620 C.ar   1 <0>      -0.0600
   17 C17       3.2872    -8.1057    -3.3761 C.ar   1 <0>      -0.1200
   18 C18       2.1794    -8.8304    -2.9730 C.ar   1 <0>      -0.1000
   19 C19       0.9992    -8.1824    -2.6535 C.ar   1 <0>      -0.1300
   20 C20       0.9215    -6.8073    -2.7285 C.ar   1 <0>      -0.0800
   21 O21       1.4287    -3.9147    -2.2006 O.3    1 <0>      -0.2000
   22 C22       1.3224    -2.5696    -2.2063 C.ar   1 <0>       0.2200
   23 C23       0.7773    -1.8973    -1.1233 C.ar   1 <0>      -0.2200
   24 H24       1.0504     1.9741    -0.2880 H      1 <0>       0.0600
   25 H25      -0.5645     1.8377    -1.0242 H      1 <0>       0.0600
   26 H26      -0.3994     1.9518     0.7445 H      1 <0>       0.1100
   27 H27       1.0314     1.2887    -2.2482 H      1 <0>       0.1500
   28 H28       2.5224     2.0744    -3.4924 H      1 <0>       0.0600
   29 H29       2.3489     2.1318    -5.2629 H      1 <0>       0.1100
   30 H30       0.9091     1.9454    -4.2331 H      1 <0>       0.0600
   31 H31       2.7103    -5.4168    -7.2991 H      1 <0>       0.1000
   32 H32       1.2046    -5.0322    -6.4313 H      1 <0>       0.0400
   33 H33       2.2453    -3.7194    -7.0328 H      1 <0>       0.0600
   34 H34       4.0870    -6.1663    -3.7775 H      1 <0>       0.1400
   35 H35       4.2049    -8.6180    -3.6243 H      1 <0>       0.1300
   36 H36       2.2360    -9.9069    -2.9078 H      1 <0>       0.1300
   37 H37       0.1383    -8.7543    -2.3403 H      1 <0>       0.1300
   38 H38      -0.0001    -6.3028    -2.4784 H      1 <0>       0.1300
   39 H39       0.4321    -2.4508    -0.2626 H      1 <0>       0.1600
@<TRIPOS>BOND
   1    1    2 1
   2    1   24 1
   3    1   25 1
   4    1   26 1
   5    2    3 1
   6    3   23 ar
   7    3    4 ar
   8    4    5 ar
   9    4   27 1
  10    5    6 1
  11    5    8 ar
  12    6    7 1
  13    7   28 1
  14    7   29 1
  15    7   30 1
  16    8   22 ar
  17    8    9 1
  18    9   10 2
  19    9   11 1
  20   11   12 1
  21   11   14 2
  22   12   13 1
  23   13   31 1
  24   13   32 1
  25   13   33 1
  26   14   15 1
  27   14   21 1
  28   15   20 ar
  29   15   16 ar
  30   16   17 ar
  31   16   34 1
  32   17   18 ar
  33   17   35 1
  34   18   19 ar
  35   18   36 1
  36   19   20 ar
  37   19   37 1
  38   20   38 1
  39   21   22 1
  40   22   23 ar
  41   23   39 1
