@<TRIPOS>MOLECULE
ZINC000169705359
63    67    1     0     0
SMALL
USER_CHARGES
@<TRIPOS>ATOM
1      C1     -2.6460    0.2090    1.4422 C.3      1 ZINC000169705359    0.0200
2      O2     -1.8374   -0.8108    0.8519 O.3      1 ZINC000169705359   -0.2900
3      C3     -0.5335   -0.8599    1.2298 C.ar     1 ZINC000169705359    0.1700
4      C4     -0.0429    0.0491    2.1527 C.ar     1 ZINC000169705359   -0.1800
5      C5      1.2839   -0.0006    2.5369 C.ar     1 ZINC000169705359   -0.0900
6      C6      2.1315   -0.9582    2.0031 C.ar     1 ZINC000169705359    0.0600
7      F7      3.4267   -0.9991    2.3850 F        1 ZINC000169705359   -0.1300
8      C8      1.6560   -1.8716    1.0819 C.ar     1 ZINC000169705359   -0.1000
9      C9      0.3173   -1.8329    0.6920 C.ar     1 ZINC000169705359   -0.0300
10     C10    -0.1978   -2.8073   -0.2932 C.2      1 ZINC000169705359    0.2700
11     N11    -0.9159   -2.5175   -1.3515 N.2      1 ZINC000169705359   -0.3900
12     C12    -1.2037   -3.6583   -2.0176 C.2      1 ZINC000169705359   -0.0500
13     C13    -0.6323   -4.6907   -1.3299 C.2      1 ZINC000169705359   -0.0100
14     C14    -0.9611   -5.9540   -2.0833 C.3      1 ZINC000169705359    0.2700
15     H15    -0.0449   -6.4427   -2.4148 H        1 ZINC000169705359    0.1200
16     C16    -1.7591   -6.8868   -1.2091 C.ar     1 ZINC000169705359   -0.1000
17     C17    -3.0266   -6.5270   -0.7913 C.ar     1 ZINC000169705359   -0.0800
18     C18    -3.7593   -7.3824    0.0102 C.ar     1 ZINC000169705359   -0.1100
19     C19    -3.2237   -8.5986    0.3941 C.ar     1 ZINC000169705359   -0.0200
20     Cl20   -4.1434   -9.6736    1.4002 Cl       1 ZINC000169705359   -0.0600
21     C21    -1.9548   -8.9583   -0.0244 C.ar     1 ZINC000169705359   -0.1100
22     C22    -1.2254   -8.1046   -0.8300 C.ar     1 ZINC000169705359   -0.0500
23     C23     0.1564   -8.4963   -1.2864 C.3      1 ZINC000169705359   -0.1300
24     N24    -1.7601   -5.5379   -3.2427 N.am     1 ZINC000169705359   -0.5600
25     C25    -2.2874   -6.3840   -4.2235 C.ar     1 ZINC000169705359    0.1600
26     C26    -3.5259   -6.9822   -4.0335 C.ar     1 ZINC000169705359   -0.0900
27     C27    -4.0443   -7.8177   -5.0053 C.ar     1 ZINC000169705359   -0.0300
28     Cl28   -5.5926   -8.5665   -4.7695 Cl       1 ZINC000169705359   -0.0600
29     C29    -3.3301   -8.0572   -6.1661 C.ar     1 ZINC000169705359   -0.0900
30     C30    -2.0964   -7.4624   -6.3573 C.ar     1 ZINC000169705359   -0.1000
31     C31    -1.5756   -6.6231   -5.3923 C.ar     1 ZINC000169705359   -0.0600
32     C32    -0.2310   -5.9756   -5.6020 C.3      1 ZINC000169705359   -0.1200
33     C33    -1.8963   -4.2007   -3.1965 C.2      1 ZINC000169705359    0.6000
34     O34    -2.5053   -3.5353   -4.0125 O.2      1 ZINC000169705359   -0.4900
35     N35     0.0007   -4.1605   -0.2554 N.pl3    1 ZINC000169705359   -0.4000
36     C36     0.7514   -4.8999    0.7624 C.3      1 ZINC000169705359    0.1100
37     C37    -0.1597   -5.9452    1.4090 C.3      1 ZINC000169705359   -0.1800
38     C38     1.9452   -5.5985    0.1085 C.3      1 ZINC000169705359   -0.1700
39     H39    -2.2329    1.1875    1.1971 H        1 ZINC000169705359    0.0600
40     H40    -3.6623    0.1363    1.0551 H        1 ZINC000169705359    0.1100
41     H41    -2.6593    0.0809    2.5246 H        1 ZINC000169705359    0.0600
42     H42    -0.6981    0.7980    2.5726 H        1 ZINC000169705359    0.1500
43     H43     1.6620    0.7107    3.2563 H        1 ZINC000169705359    0.1500
44     H44     2.3188   -2.6169    0.6675 H        1 ZINC000169705359    0.1400
45     H45    -3.4445   -5.5772   -1.0909 H        1 ZINC000169705359    0.1300
46     H46    -4.7495   -7.1010    0.3369 H        1 ZINC000169705359    0.1400
47     H47    -1.5360   -9.9076    0.2753 H        1 ZINC000169705359    0.1400
48     H48     0.0969   -8.9527   -2.2745 H        1 ZINC000169705359    0.0800
49     H49     0.7886   -7.6096   -1.3331 H        1 ZINC000169705359    0.0700
50     H50     0.5831   -9.2100   -0.5816 H        1 ZINC000169705359    0.0800
51     H51    -4.0833   -6.7953   -3.1276 H        1 ZINC000169705359    0.1400
52     H52    -3.7368   -8.7102   -6.9241 H        1 ZINC000169705359    0.1400
53     H53    -1.5414   -7.6512   -7.2643 H        1 ZINC000169705359    0.1400
54     H54    -0.3636   -5.0171   -6.1039 H        1 ZINC000169705359    0.0800
55     H55     0.2504   -5.8169   -4.6371 H        1 ZINC000169705359    0.0600
56     H56     0.3927   -6.6244   -6.2169 H        1 ZINC000169705359    0.0800
57     H57     1.1084   -4.2077    1.5249 H        1 ZINC000169705359    0.1100
58     H58     0.3586   -6.4100    2.2477 H        1 ZINC000169705359    0.0800
59     H59    -1.0696   -5.4629    1.7663 H        1 ZINC000169705359    0.0700
60     H60    -0.4173   -6.7074    0.6736 H        1 ZINC000169705359    0.0800
61     H61     2.6482   -4.8502   -0.2575 H        1 ZINC000169705359    0.0700
62     H62     2.4406   -6.2344    0.8422 H        1 ZINC000169705359    0.0900
63     H63     1.5973   -6.2086   -0.7251 H        1 ZINC000169705359    0.0700
@<TRIPOS>BOND
1     1     2     1
2     1     39    1
3     1     40    1
4     1     41    1
5     2     3     1
6     3     9     ar
7     3     4     ar
8     4     5     ar
9     4     42    1
10    5     6     ar
11    5     43    1
12    6     7     1
13    6     8     ar
14    8     9     ar
15    8     44    1
16    9     10    1
17    10    35    1
18    10    11    2
19    11    12    1
20    12    33    1
21    12    13    2
22    13    14    1
23    13    35    1
24    14    15    1
25    14    16    1
26    14    24    1
27    16    22    ar
28    16    17    ar
29    17    18    ar
30    17    45    1
31    18    19    ar
32    18    46    1
33    19    20    1
34    19    21    ar
35    21    22    ar
36    21    47    1
37    22    23    1
38    23    48    1
39    23    49    1
40    23    50    1
41    24    25    1
42    24    33    am
43    25    31    ar
44    25    26    ar
45    26    27    ar
46    26    51    1
47    27    28    1
48    27    29    ar
49    29    30    ar
50    29    52    1
51    30    31    ar
52    30    53    1
53    31    32    1
54    32    54    1
55    32    55    1
56    32    56    1
57    33    34    2
58    35    36    1
59    36    37    1
60    36    38    1
61    36    57    1
62    37    58    1
63    37    59    1
64    37    60    1
65    38    61    1
66    38    62    1
67    38    63    1
@<TRIPOS>SUBSTRUCTURE
1   ZINC000169705359 1     RESIDUE    1   A     ZIN   1
