@<TRIPOS>MOLECULE
ZINC000616570764
92    93    1     0     0
SMALL
USER_CHARGES
@<TRIPOS>ATOM
1      C1     -0.1660    1.4531    0.0453 C.3      1 ZINC000616570764   -0.1500
2      C2     -0.1351   -0.0766    0.0337 C.3      1 ZINC000616570764   -0.1300
3      C3      0.5857   -0.5626   -1.2253 C.3      1 ZINC000616570764   -0.1200
4      C4      0.6165   -2.0922   -1.2370 C.3      1 ZINC000616570764   -0.1200
5      C5      1.3374   -2.5782   -2.4960 C.3      1 ZINC000616570764   -0.1200
6      C6      1.3682   -4.1078   -2.5077 C.3      1 ZINC000616570764   -0.1200
7      C7      2.0890   -4.5938   -3.7667 C.3      1 ZINC000616570764   -0.1200
8      C8      2.1199   -6.1235   -3.7783 C.3      1 ZINC000616570764   -0.1200
9      C9      2.8407   -6.6095   -5.0373 C.3      1 ZINC000616570764   -0.1200
10     C10     2.8715   -8.1391   -5.0490 C.3      1 ZINC000616570764   -0.1200
11     C11     3.5924   -8.6251   -6.3080 C.3      1 ZINC000616570764   -0.1200
12     C12     3.6232  -10.1548   -6.3196 C.3      1 ZINC000616570764   -0.1100
13     C13     4.3440  -10.6408   -7.5786 C.3      1 ZINC000616570764   -0.1100
14     C14     4.3744  -12.1474   -7.5901 C.2      1 ZINC000616570764    0.2700
15     S15     3.7084  -12.9697   -6.3913 S.2      1 ZINC000616570764   -0.4500
16     N16     4.9629  -12.8018   -8.6108 N.am     1 ZINC000616570764   -0.6600
17     C17     4.9925  -14.2665   -8.6220 C.3      1 ZINC000616570764    0.1000
18     C18     5.7133  -14.7525   -9.8810 C.3      1 ZINC000616570764   -0.1300
19     C19     5.7441  -16.2821   -9.8927 C.3      1 ZINC000616570764   -0.1200
20     C20     6.4650  -16.7681  -11.1517 C.3      1 ZINC000616570764   -0.1200
21     C21     6.4958  -18.2978  -11.1633 C.3      1 ZINC000616570764    0.1500
22     H22     5.4804  -18.6824  -11.0681 H        1 ZINC000616570764    0.1300
23     N23     7.3072  -18.7784  -10.0422 N.am     1 ZINC000616570764   -0.6900
24     C24     7.0943  -20.0088   -9.5350 C.2      1 ZINC000616570764    0.6600
25     O25     6.2294  -20.7195  -10.0076 O.2      1 ZINC000616570764   -0.5700
26     O26     7.8400  -20.4505   -8.5047 O.3      1 ZINC000616570764   -0.3600
27     C27     7.5555  -21.7855   -8.0097 C.3      1 ZINC000616570764    0.1300
28     C28     8.4821  -22.1049   -6.8650 C.ar     1 ZINC000616570764   -0.1000
29     C29     9.7046  -22.7015   -7.1111 C.ar     1 ZINC000616570764   -0.0900
30     C30    10.5546  -22.9945   -6.0611 C.ar     1 ZINC000616570764   -0.1200
31     C31    10.1823  -22.6905   -4.7650 C.ar     1 ZINC000616570764   -0.1100
32     C32     8.9602  -22.0931   -4.5189 C.ar     1 ZINC000616570764   -0.1200
33     C33     8.1120  -21.7962   -5.5694 C.ar     1 ZINC000616570764   -0.0900
34     C34     7.0954  -18.7783  -12.4597 C.2      1 ZINC000616570764    0.5000
35     O35     8.1015  -19.4555  -12.4483 O.2      1 ZINC000616570764   -0.5000
36     N36     6.5136  -18.4554  -13.6318 N.am     1 ZINC000616570764   -0.6700
37     C37     7.1223  -18.8183  -14.8384 C.ar     1 ZINC000616570764    0.1400
38     C38     7.0371  -17.9783  -15.9409 C.ar     1 ZINC000616570764   -0.1400
39     C39     7.6389  -18.3394  -17.1304 C.ar     1 ZINC000616570764   -0.1000
40     C40     8.3253  -19.5362  -17.2244 C.ar     1 ZINC000616570764   -0.1300
41     C41     8.4115  -20.3750  -16.1284 C.ar     1 ZINC000616570764   -0.1000
42     C42     7.8176  -20.0166  -14.9342 C.ar     1 ZINC000616570764   -0.1200
43     H43     0.8541    1.8371    0.0396 H        1 ZINC000616570764    0.0500
44     H44    -0.6945    1.8126   -0.8376 H        1 ZINC000616570764    0.0500
45     H45    -0.6795    1.7993    0.9423 H        1 ZINC000616570764    0.0500
46     H46     0.3934   -0.4360    0.9166 H        1 ZINC000616570764    0.0600
47     H47    -1.1552   -0.4606    0.0394 H        1 ZINC000616570764    0.0600
48     H48     0.0572   -0.2031   -2.1083 H        1 ZINC000616570764    0.0600
49     H49     1.6058   -0.1785   -1.2311 H        1 ZINC000616570764    0.0600
50     H50     1.1451   -2.4517   -0.3541 H        1 ZINC000616570764    0.0600
51     H51    -0.4036   -2.4762   -1.2313 H        1 ZINC000616570764    0.0600
52     H52     0.8088   -2.2187   -3.3789 H        1 ZINC000616570764    0.0600
53     H53     2.3575   -2.1942   -2.5017 H        1 ZINC000616570764    0.0600
54     H54     1.8967   -4.4673   -1.6247 H        1 ZINC000616570764    0.0600
55     H55     0.3481   -4.4919   -2.5019 H        1 ZINC000616570764    0.0600
56     H56     1.5605   -4.2344   -4.6496 H        1 ZINC000616570764    0.0600
57     H57     3.1091   -4.2098   -3.7724 H        1 ZINC000616570764    0.0600
58     H58     2.6484   -6.4830   -2.8954 H        1 ZINC000616570764    0.0600
59     H59     1.0998   -6.5075   -3.7726 H        1 ZINC000616570764    0.0600
60     H60     2.3122   -6.2500   -5.9202 H        1 ZINC000616570764    0.0600
61     H61     3.8608   -6.2255   -5.0431 H        1 ZINC000616570764    0.0600
62     H62     3.4001   -8.4986   -4.1661 H        1 ZINC000616570764    0.0600
63     H63     1.8514   -8.5232   -5.0432 H        1 ZINC000616570764    0.0600
64     H64     3.0638   -8.2656   -7.1909 H        1 ZINC000616570764    0.0600
65     H65     4.6125   -8.2411   -6.3137 H        1 ZINC000616570764    0.0600
66     H66     4.1517  -10.5143   -5.4367 H        1 ZINC000616570764    0.0800
67     H67     2.6031  -10.5388   -6.3139 H        1 ZINC000616570764    0.0800
68     H68     3.8155  -10.2813   -8.4616 H        1 ZINC000616570764    0.0900
69     H69     5.3641  -10.2567   -7.5844 H        1 ZINC000616570764    0.0900
70     H70     5.3670  -12.3030   -9.3381 H        1 ZINC000616570764    0.4000
71     H71     5.5210  -14.6260   -7.7391 H        1 ZINC000616570764    0.0900
72     H72     3.9724  -14.6505   -8.6163 H        1 ZINC000616570764    0.0900
73     H73     5.1848  -14.3930  -10.7639 H        1 ZINC000616570764    0.0700
74     H74     6.7334  -14.3685   -9.8867 H        1 ZINC000616570764    0.0700
75     H75     6.2727  -16.6416   -9.0097 H        1 ZINC000616570764    0.0800
76     H76     4.7240  -16.6661   -9.8869 H        1 ZINC000616570764    0.0800
77     H77     5.9364  -16.4086  -12.0346 H        1 ZINC000616570764    0.0900
78     H78     7.4851  -16.3841  -11.1574 H        1 ZINC000616570764    0.0800
79     H79     7.9977  -18.2111   -9.6650 H        1 ZINC000616570764    0.4100
80     H80     6.5225  -21.8327   -7.6650 H        1 ZINC000616570764    0.0800
81     H81     7.7046  -22.5095   -8.8108 H        1 ZINC000616570764    0.0800
82     H82     9.9954  -22.9390   -8.1237 H        1 ZINC000616570764    0.1300
83     H83    11.5093  -23.4612   -6.2533 H        1 ZINC000616570764    0.1300
84     H84    10.8461  -22.9200   -3.9446 H        1 ZINC000616570764    0.1300
85     H85     8.6692  -21.8559   -3.5063 H        1 ZINC000616570764    0.1300
86     H86     7.1573  -21.3295   -5.3772 H        1 ZINC000616570764    0.1300
87     H87     5.6730  -17.9714  -13.6390 H        1 ZINC000616570764    0.4100
88     H88     6.5006  -17.0438  -15.8684 H        1 ZINC000616570764    0.1300
89     H89     7.5731  -17.6866  -17.9883 H        1 ZINC000616570764    0.1300
90     H90     8.7947  -19.8165  -18.1557 H        1 ZINC000616570764    0.1200
91     H91     8.9477  -21.3094  -16.2052 H        1 ZINC000616570764    0.1300
92     H92     7.8852  -20.6722  -14.0786 H        1 ZINC000616570764    0.1400
@<TRIPOS>BOND
1     1     2     1
2     1     43    1
3     1     44    1
4     1     45    1
5     2     3     1
6     2     46    1
7     2     47    1
8     3     4     1
9     3     48    1
10    3     49    1
11    4     5     1
12    4     50    1
13    4     51    1
14    5     6     1
15    5     52    1
16    5     53    1
17    6     7     1
18    6     54    1
19    6     55    1
20    7     8     1
21    7     56    1
22    7     57    1
23    8     9     1
24    8     58    1
25    8     59    1
26    9     10    1
27    9     60    1
28    9     61    1
29    10    11    1
30    10    62    1
31    10    63    1
32    11    12    1
33    11    64    1
34    11    65    1
35    12    13    1
36    12    66    1
37    12    67    1
38    13    14    1
39    13    68    1
40    13    69    1
41    14    15    2
42    14    16    am
43    16    17    1
44    16    70    1
45    17    18    1
46    17    71    1
47    17    72    1
48    18    19    1
49    18    73    1
50    18    74    1
51    19    20    1
52    19    75    1
53    19    76    1
54    20    21    1
55    20    77    1
56    20    78    1
57    21    22    1
58    21    23    1
59    21    34    1
60    23    24    am
61    23    79    1
62    24    25    2
63    24    26    1
64    26    27    1
65    27    28    1
66    27    80    1
67    27    81    1
68    28    33    ar
69    28    29    ar
70    29    30    ar
71    29    82    1
72    30    31    ar
73    30    83    1
74    31    32    ar
75    31    84    1
76    32    33    ar
77    32    85    1
78    33    86    1
79    34    35    2
80    34    36    am
81    36    37    1
82    36    87    1
83    37    42    ar
84    37    38    ar
85    38    39    ar
86    38    88    1
87    39    40    ar
88    39    89    1
89    40    41    ar
90    40    90    1
91    41    42    ar
92    41    91    1
93    42    92    1
@<TRIPOS>SUBSTRUCTURE
1   ZINC000616570764 1     RESIDUE    1   A     ZIN   1
