@<TRIPOS>MOLECULE
ZINC000149984972
70    74    1     0     0
SMALL
USER_CHARGES
@<TRIPOS>ATOM
1      C1     -5.3123   -1.7345    1.6067 C.3      1 ZINC000149984972   -0.0500
2      N2     -4.0193   -2.3398    1.2609 N.4      1 ZINC000149984972   -0.3900
3      H3     -3.4694   -1.6794    0.7323 H        1 ZINC000149984972    0.4300
4      C4     -3.3024   -2.6998    2.4915 C.3      1 ZINC000149984972   -0.0500
5      C5     -4.2438   -3.5468    0.4541 C.3      1 ZINC000149984972    0.0300
6      C6     -4.8687   -3.1620   -0.8622 C.2      1 ZINC000149984972   -0.1500
7      C7     -4.2961   -3.5334   -2.0040 C.2      1 ZINC000149984972   -0.1300
8      C8     -4.9058   -3.1579   -3.2884 C.2      1 ZINC000149984972    0.5400
9      O9     -5.9336   -2.5080   -3.3068 O.2      1 ZINC000149984972   -0.5100
10     N10    -4.3257   -3.5342   -4.4453 N.am     1 ZINC000149984972   -0.6600
11     C11    -4.9526   -3.2625   -5.6597 C.ar     1 ZINC000149984972    0.1600
12     C12    -4.8670   -4.1770   -6.7051 C.ar     1 ZINC000149984972   -0.1400
13     C13    -5.4855   -3.9119   -7.9059 C.ar     1 ZINC000149984972   -0.0400
14     C14    -6.2002   -2.7226   -8.0745 C.ar     1 ZINC000149984972   -0.1400
15     C15    -6.8649   -2.4354   -9.3602 C.2      1 ZINC000149984972    0.5600
16     O16    -6.7913   -3.2337  -10.2744 O.2      1 ZINC000149984972   -0.5100
17     N17    -7.5537   -1.2882   -9.5212 N.am     1 ZINC000149984972   -0.6700
18     C18    -8.2726   -1.0636  -10.6996 C.ar     1 ZINC000149984972    0.1600
19     C19    -8.3868    0.2234  -11.2099 C.ar     1 ZINC000149984972   -0.1600
20     C20    -9.0965    0.4461  -12.3744 C.ar     1 ZINC000149984972   -0.0800
21     C21    -9.6949   -0.6093  -13.0347 C.ar     1 ZINC000149984972   -0.1300
22     C22    -9.5844   -1.8993  -12.5295 C.ar     1 ZINC000149984972    0.1900
23     N23   -10.1899   -2.9672  -13.1986 N.pl3    1 ZINC000149984972   -0.6300
24     C24   -10.2864   -2.9535  -14.5811 C.ar     1 ZINC000149984972    0.5700
25     N25    -9.6963   -1.9802  -15.2593 N.ar     1 ZINC000149984972   -0.5500
26     C26    -9.7644   -1.9306  -16.5816 C.ar     1 ZINC000149984972    0.2100
27     C27   -10.4630   -2.9115  -17.2603 C.ar     1 ZINC000149984972   -0.2000
28     Cl28  -10.5766   -2.8844  -18.9924 Cl       1 ZINC000149984972   -0.0400
29     C29   -11.0768   -3.9282  -16.5171 C.ar     1 ZINC000149984972    0.3200
30     C30   -11.8354   -5.0012  -17.1954 C.2      1 ZINC000149984972   -0.1600
31     C31   -11.4291   -5.7291  -18.2672 C.2      1 ZINC000149984972    0.1200
32     N32   -12.3964   -6.6239  -18.6098 N.pl3    1 ZINC000149984972   -0.5800
33     C33   -13.4771   -6.5063  -17.7618 C.ar     1 ZINC000149984972    0.0900
34     C34   -14.6986   -7.1663  -17.6779 C.ar     1 ZINC000149984972   -0.1200
35     C35   -15.6014   -6.8192  -16.6966 C.ar     1 ZINC000149984972   -0.1000
36     C36   -15.3055   -5.8145  -15.7866 C.ar     1 ZINC000149984972   -0.1400
37     C37   -14.1016   -5.1485  -15.8530 C.ar     1 ZINC000149984972   -0.0700
38     C38   -13.1761   -5.4929  -16.8361 C.ar     1 ZINC000149984972   -0.0700
39     N39   -10.9611   -3.9161  -15.1897 N.ar     1 ZINC000149984972   -0.5400
40     C40    -8.8677   -2.1271  -11.3635 C.ar     1 ZINC000149984972   -0.1500
41     C41    -6.2843   -1.8062   -7.0225 C.ar     1 ZINC000149984972   -0.0700
42     C42    -5.6678   -2.0799   -5.8225 C.ar     1 ZINC000149984972   -0.1200
43     H43    -5.1457   -0.8390    2.2054 H        1 ZINC000149984972    0.1300
44     H44    -5.8443   -1.4674    0.6936 H        1 ZINC000149984972    0.1300
45     H45    -5.9064   -2.4480    2.1778 H        1 ZINC000149984972    0.1200
46     H46    -3.8965   -3.4133    3.0626 H        1 ZINC000149984972    0.1200
47     H47    -2.3430   -3.1490    2.2349 H        1 ZINC000149984972    0.1200
48     H48    -3.1358   -1.8043    3.0902 H        1 ZINC000149984972    0.1300
49     H49    -3.2914   -4.0447    0.2724 H        1 ZINC000149984972    0.1400
50     H50    -4.9109   -4.2226    0.9892 H        1 ZINC000149984972    0.1500
51     H51    -5.7814   -2.5848   -0.8784 H        1 ZINC000149984972    0.1500
52     H52    -3.3834   -4.1106   -1.9878 H        1 ZINC000149984972    0.1500
53     H53    -3.4718   -3.9941   -4.4326 H        1 ZINC000149984972    0.4200
54     H54    -4.3143   -5.0956   -6.5742 H        1 ZINC000149984972    0.1400
55     H55    -5.4184   -4.6219   -8.7169 H        1 ZINC000149984972    0.1500
56     H56    -7.5508   -0.6182   -8.8197 H        1 ZINC000149984972    0.4100
57     H57    -7.9207    1.0509  -10.6956 H        1 ZINC000149984972    0.1300
58     H58    -9.1838    1.4476  -12.7690 H        1 ZINC000149984972    0.1300
59     H59   -10.2495   -0.4319  -13.9443 H        1 ZINC000149984972    0.1400
60     H60   -10.5426   -3.7176  -12.6953 H        1 ZINC000149984972    0.4300
61     H61    -9.2796   -1.1320  -17.1234 H        1 ZINC000149984972    0.1800
62     H62   -10.4814   -5.6150  -18.7724 H        1 ZINC000149984972    0.1800
63     H63   -12.3343   -7.2535  -19.3451 H        1 ZINC000149984972    0.4200
64     H64   -14.9393   -7.9496  -18.3813 H        1 ZINC000149984972    0.1200
65     H65   -16.5488   -7.3341  -16.6353 H        1 ZINC000149984972    0.1300
66     H66   -16.0227   -5.5531  -15.0227 H        1 ZINC000149984972    0.1200
67     H67   -13.8742   -4.3663  -15.1438 H        1 ZINC000149984972    0.1200
68     H68    -8.7803   -3.1286  -10.9688 H        1 ZINC000149984972    0.1400
69     H69    -6.8357   -0.8864   -7.1496 H        1 ZINC000149984972    0.1300
70     H70    -5.7324   -1.3722   -5.0092 H        1 ZINC000149984972    0.1400
@<TRIPOS>BOND
1     1     2     1
2     1     43    1
3     1     44    1
4     1     45    1
5     2     3     1
6     2     4     1
7     2     5     1
8     4     46    1
9     4     47    1
10    4     48    1
11    5     6     1
12    5     49    1
13    5     50    1
14    6     7     2
15    6     51    1
16    7     8     1
17    7     52    1
18    8     9     2
19    8     10    am
20    10    11    1
21    10    53    1
22    11    42    ar
23    11    12    ar
24    12    13    ar
25    12    54    1
26    13    14    ar
27    13    55    1
28    14    15    1
29    14    41    ar
30    15    16    2
31    15    17    am
32    17    18    1
33    17    56    1
34    18    40    ar
35    18    19    ar
36    19    20    ar
37    19    57    1
38    20    21    ar
39    20    58    1
40    21    22    ar
41    21    59    1
42    22    23    1
43    22    40    ar
44    23    24    1
45    23    60    1
46    24    39    ar
47    24    25    ar
48    25    26    ar
49    26    27    ar
50    26    61    1
51    27    28    1
52    27    29    ar
53    29    30    1
54    29    39    ar
55    30    38    1
56    30    31    2
57    31    32    1
58    31    62    1
59    32    33    1
60    32    63    1
61    33    38    ar
62    33    34    ar
63    34    35    ar
64    34    64    1
65    35    36    ar
66    35    65    1
67    36    37    ar
68    36    66    1
69    37    38    ar
70    37    67    1
71    40    68    1
72    41    42    ar
73    41    69    1
74    42    70    1
@<TRIPOS>SUBSTRUCTURE
1   ZINC000149984972 1     RESIDUE    1   A     ZIN   1
