@<TRIPOS>MOLECULE
ZINC000000003381
27    28    1     0     0
SMALL
USER_CHARGES
@<TRIPOS>ATOM
1      O1      0.0023   -0.0042    0.0045 O.2      1 ZINC000000003381   -0.4800
2      C2     -0.0144    1.2113    0.0070 C.2      1 ZINC000000003381    0.5600
3      N3      1.1435    1.9011    0.0014 N.am     1 ZINC000000003381   -0.6700
4      C4      2.3592    1.2237    0.0914 C.ar     1 ZINC000000003381    0.1900
5      C5      2.5294   -0.0230   -0.5090 C.ar     1 ZINC000000003381   -0.1700
6      C6      3.7477   -0.6601   -0.3972 C.ar     1 ZINC000000003381    0.1200
7      N7      4.7432   -0.1044    0.2675 N.ar     1 ZINC000000003381   -0.4900
8      C8      4.6216    1.0738    0.8494 C.ar     1 ZINC000000003381    0.1200
9      C9      3.4377    1.7783    0.7792 C.ar     1 ZINC000000003381   -0.2000
10     C10    -1.3037    1.9324    0.0102 C.ar     1 ZINC000000003381   -0.1300
11     C11    -1.3267    3.3282    0.0073 C.ar     1 ZINC000000003381   -0.0100
12     C12    -2.5340    3.9953    0.0103 C.ar     1 ZINC000000003381   -0.0500
13     N13    -2.5595    5.4753    0.0067 N.pl3    1 ZINC000000003381    0.0300
14     O14    -1.5153    6.1023    0.0011 O.2      1 ZINC000000003381   -0.1500
15     O15    -3.6246    6.0660    0.0093 O.2      1 ZINC000000003381   -0.1400
16     C16    -3.7215    3.2848    0.0161 C.ar     1 ZINC000000003381   -0.0100
17     C17    -3.7076    1.9017    0.0190 C.ar     1 ZINC000000003381   -0.1100
18     C18    -2.5063    1.2204    0.0103 C.ar     1 ZINC000000003381    0.0600
19     Cl19   -2.4901   -0.5155    0.0133 Cl       1 ZINC000000003381    0.0100
20     H20     1.1312    2.8688   -0.0654 H        1 ZINC000000003381    0.4100
21     H21     1.7186   -0.4836   -1.0538 H        1 ZINC000000003381    0.1500
22     H22     3.8886   -1.6261   -0.8591 H        1 ZINC000000003381    0.1600
23     H23     5.4608    1.4935    1.3842 H        1 ZINC000000003381    0.1600
24     H24     3.3449    2.7422    1.2574 H        1 ZINC000000003381    0.1400
25     H25    -0.4010    3.8846    0.0031 H        1 ZINC000000003381    0.1600
26     H26    -4.6636    3.8127    0.0188 H        1 ZINC000000003381    0.1700
27     H27    -4.6381    1.3534    0.0236 H        1 ZINC000000003381    0.1700
@<TRIPOS>BOND
1     1     2     2
2     2     3     am
3     2     10    1
4     3     4     1
5     3     20    1
6     4     9     ar
7     4     5     ar
8     5     6     ar
9     5     21    1
10    6     7     ar
11    6     22    1
12    7     8     ar
13    8     9     ar
14    8     23    1
15    9     24    1
16    10    18    ar
17    10    11    ar
18    11    12    ar
19    11    25    1
20    12    13    1
21    12    16    ar
22    13    14    2
23    13    15    2
24    16    17    ar
25    16    26    1
26    17    18    ar
27    17    27    1
28    18    19    1
@<TRIPOS>SUBSTRUCTURE
1   ZINC000000003381 1     RESIDUE    1   A     ZIN   1
