@<TRIPOS>MOLECULE
ZINC000000018056
31    33    1     0     0
SMALL
USER_CHARGES
@<TRIPOS>ATOM
1      C1     -0.0173    1.4248    0.0099 C.3      1 ZINC000000018056    0.0200
2      O2      0.0021   -0.0041    0.0020 O.3      1 ZINC000000018056   -0.3100
3      C3      0.6051   -0.6064   -1.0545 C.ar     1 ZINC000000018056    0.1900
4      C4      1.1723    0.1710   -2.0614 C.ar     1 ZINC000000018056   -0.2300
5      C5      1.7825   -0.4215   -3.1306 C.ar     1 ZINC000000018056    0.0100
6      C6      1.8371   -1.8127   -3.2130 C.ar     1 ZINC000000018056   -0.2600
7      C7      2.4876   -2.4880   -4.3514 C.2      1 ZINC000000018056    0.4300
8      O8      2.9993   -1.8518   -5.2581 O.2      1 ZINC000000018056   -0.4700
9      C9      2.4953   -3.9034   -4.3502 C.2      1 ZINC000000018056   -0.3100
10     C10     1.9149   -4.5762   -3.3213 C.2      1 ZINC000000018056    0.2100
11     C11     1.9334   -6.0527   -3.3385 C.ar     1 ZINC000000018056   -0.0700
12     C12     2.5435   -6.7343   -4.3938 C.ar     1 ZINC000000018056   -0.0800
13     C13     2.5575   -8.1136   -4.4033 C.ar     1 ZINC000000018056   -0.1200
14     C14     1.9690   -8.8218   -3.3704 C.ar     1 ZINC000000018056   -0.0900
15     C15     1.3627   -8.1529   -2.3217 C.ar     1 ZINC000000018056   -0.1200
16     C16     1.3460   -6.7739   -2.2967 C.ar     1 ZINC000000018056   -0.0800
17     O17     1.3261   -3.9505   -2.2903 O.3      1 ZINC000000018056   -0.2200
18     C18     1.2674   -2.6053   -2.2016 C.ar     1 ZINC000000018056    0.1900
19     C19     0.6563   -1.9893   -1.1195 C.ar     1 ZINC000000018056   -0.1800
20     H20     1.0053    1.8021    0.0021 H        1 ZINC000000018056    0.0600
21     H21    -0.5445    1.7859   -0.8732 H        1 ZINC000000018056    0.0600
22     H22    -0.5275    1.7763    0.9067 H        1 ZINC000000018056    0.1100
23     H23     1.1291    1.2482   -1.9967 H        1 ZINC000000018056    0.1400
24     H24     2.2207    0.1852   -3.9093 H        1 ZINC000000018056    0.1500
25     H25     2.9589   -4.4452   -5.1614 H        1 ZINC000000018056    0.1600
26     H26     3.0030   -6.1828   -5.2008 H        1 ZINC000000018056    0.1400
27     H27     3.0287   -8.6420   -5.2189 H        1 ZINC000000018056    0.1300
28     H28     1.9825   -9.9016   -3.3830 H        1 ZINC000000018056    0.1300
29     H29     0.9053   -8.7119   -1.5188 H        1 ZINC000000018056    0.1300
30     H30     0.8725   -6.2530   -1.4776 H        1 ZINC000000018056    0.1400
31     H31     0.2186   -2.5855   -0.3325 H        1 ZINC000000018056    0.1500
@<TRIPOS>BOND
1     1     2     1
2     1     20    1
3     1     21    1
4     1     22    1
5     2     3     1
6     3     19    ar
7     3     4     ar
8     4     5     ar
9     4     23    1
10    5     6     ar
11    5     24    1
12    6     18    ar
13    6     7     1
14    7     8     2
15    7     9     1
16    9     10    2
17    9     25    1
18    10    11    1
19    10    17    1
20    11    16    ar
21    11    12    ar
22    12    13    ar
23    12    26    1
24    13    14    ar
25    13    27    1
26    14    15    ar
27    14    28    1
28    15    16    ar
29    15    29    1
30    16    30    1
31    17    18    1
32    18    19    ar
33    19    31    1
@<TRIPOS>SUBSTRUCTURE
1   ZINC000000018056 1     RESIDUE    1   A     ZIN   1
