@<TRIPOS>MOLECULE
ZINC000001687017
11    10    1     0     0
SMALL
USER_CHARGES
@<TRIPOS>ATOM
1      C1      1.1129    1.7462    0.0008 C.2      1 ZINC000001687017   -0.1600
2      C2     -0.0126    1.0758    0.0080 C.2      1 ZINC000001687017   -0.1700
3      C3     -1.3278    1.8115    0.0182 C.3      1 ZINC000001687017    0.1300
4      N4     -2.1461    1.3646   -1.1118 N.2      1 ZINC000001687017   -0.5100
5      C5     -3.2617    0.8395   -0.9065 C.1      1 ZINC000001687017    0.2300
6      S6     -4.6482    0.1868   -0.6514 S.2      1 ZINC000001687017   -0.0300
7      H7      1.0982    2.8261    0.0067 H        1 ZINC000001687017    0.1000
8      H8      2.0554    1.2190   -0.0110 H        1 ZINC000001687017    0.1100
9      H9      0.0021   -0.0041    0.0020 H        1 ZINC000001687017    0.1200
10     H10    -1.8525    1.6048    0.9510 H        1 ZINC000001687017    0.0800
11     H11    -1.1455    2.8828   -0.0664 H        1 ZINC000001687017    0.1000
@<TRIPOS>BOND
1     1     2     2
2     1     7     1
3     1     8     1
4     2     3     1
5     2     9     1
6     3     4     1
7     3     10    1
8     3     11    1
9     4     5     2
10    5     6     2
@<TRIPOS>SUBSTRUCTURE
1   ZINC000001687017 1     RESIDUE    1   A     ZIN   1
