@<TRIPOS>MOLECULE
ZINC000034000152
53    56    1     0     0
SMALL
USER_CHARGES
@<TRIPOS>ATOM
1      C1      1.0692   -2.4064    0.3684 C.3      1 ZINC000034000152   -0.6700
2      S2      0.2095   -0.8437    0.0380 S.o2     1 ZINC000034000152    2.6100
3      O3     -1.1512   -1.0836   -0.2939 O.2      1 ZINC000034000152   -0.9600
4      O4      0.5662    0.1356    1.0040 O.2      1 ZINC000034000152   -0.9500
5      N5      0.8823   -0.2917   -1.3708 N.am     1 ZINC000034000152   -1.0600
6      C6      2.2381    0.0413   -1.4137 C.ar     1 ZINC000034000152    0.1100
7      C7      2.6844    1.2194   -0.8284 C.ar     1 ZINC000034000152   -0.1000
8      C8      4.0257    1.5454   -0.8722 C.ar     1 ZINC000034000152   -0.1000
9      C9      4.9240    0.7008   -1.4983 C.ar     1 ZINC000034000152   -0.0700
10     C10     6.3869    1.0599   -1.5441 C.3      1 ZINC000034000152   -0.1000
11     C11     7.0924    0.4829   -0.3152 C.3      1 ZINC000034000152    0.1300
12     N12     8.5145    0.8320   -0.3597 N.am     1 ZINC000034000152   -0.7400
13     C13     9.3390    0.4273    0.6267 C.2      1 ZINC000034000152    0.5800
14     O14     8.9023   -0.2277    1.5539 O.2      1 ZINC000034000152   -0.5900
15     C15    10.7682    0.7781    0.5819 C.ar     1 ZINC000034000152   -0.3200
16     C16    11.6315    0.3538    1.6043 C.ar     1 ZINC000034000152    0.1800
17     N17    11.4577   -0.3815    2.7536 N.pl3    1 ZINC000034000152   -0.5800
18     C18    12.6803   -0.4754    3.3652 C.2      1 ZINC000034000152    0.2100
19     C19    12.9450   -1.1846    4.6353 C.ar     1 ZINC000034000152    0.0100
20     C20    11.9059   -1.8322    5.3054 C.ar     1 ZINC000034000152   -0.0900
21     C21    12.1581   -2.4922    6.4897 C.ar     1 ZINC000034000152   -0.1500
22     C22    13.4407   -2.5132    7.0146 C.ar     1 ZINC000034000152    0.0900
23     F23    13.6826   -3.1615    8.1749 F        1 ZINC000034000152   -0.1400
24     C24    14.4761   -1.8717    6.3532 C.ar     1 ZINC000034000152   -0.1500
25     C25    14.2358   -1.2137    5.1653 C.ar     1 ZINC000034000152   -0.0600
26     N26    13.5792    0.1587    2.6535 N.2      1 ZINC000034000152   -0.4200
27     C27    12.9921    0.6920    1.5537 C.ar     1 ZINC000034000152   -0.0800
28     C28    13.4760    1.4532    0.4780 C.ar     1 ZINC000034000152    0.3600
29     O29    14.7902    1.7855    0.4191 O.3      1 ZINC000034000152   -0.6600
30     C30    12.6119    1.8649   -0.5236 C.ar     1 ZINC000034000152   -0.3100
31     C31    11.2736    1.5299   -0.4806 C.ar     1 ZINC000034000152    0.0200
32     C32     4.4832   -0.4727   -2.0819 C.ar     1 ZINC000034000152   -0.1100
33     C33     3.1441   -0.8076   -2.0368 C.ar     1 ZINC000034000152   -0.1200
34     H34     0.9510   -3.0737   -0.4853 H        1 ZINC000034000152    0.1300
35     H35     2.1289   -2.2105    0.5325 H        1 ZINC000034000152    0.1300
36     H36     0.6444   -2.8741    1.2567 H        1 ZINC000034000152    0.1300
37     H37     0.3349   -0.1997   -2.1663 H        1 ZINC000034000152    0.4200
38     H38     1.9832    1.8798   -0.3400 H        1 ZINC000034000152    0.1400
39     H39     4.3733    2.4612   -0.4174 H        1 ZINC000034000152    0.1300
40     H40     6.8345    0.6461   -2.4477 H        1 ZINC000034000152    0.0800
41     H41     6.4948    2.1446   -1.5491 H        1 ZINC000034000152    0.0800
42     H42     6.6449    0.8967    0.5884 H        1 ZINC000034000152    0.0600
43     H43     6.9845   -0.6017   -0.3102 H        1 ZINC000034000152    0.0600
44     H44     8.8628    1.3543   -1.0991 H        1 ZINC000034000152    0.4000
45     H45    10.6245   -0.7624    3.0722 H        1 ZINC000034000152    0.4200
46     H46    10.9061   -1.8161    4.8974 H        1 ZINC000034000152    0.1300
47     H47    11.3547   -2.9932    7.0092 H        1 ZINC000034000152    0.1400
48     H48    15.4736   -1.8908    6.7666 H        1 ZINC000034000152    0.1400
49     H49    15.0433   -0.7142    4.6507 H        1 ZINC000034000152    0.1500
50     H50    12.9901    2.4506   -1.3484 H        1 ZINC000034000152    0.1100
51     H51    10.6123    1.8578   -1.2690 H        1 ZINC000034000152    0.1100
52     H52     5.1874   -1.1301   -2.5701 H        1 ZINC000034000152    0.1300
53     H53     2.8004   -1.7244   -2.4926 H        1 ZINC000034000152    0.1300
@<TRIPOS>BOND
1     1     2     1
2     1     34    1
3     1     35    1
4     1     36    1
5     2     3     2
6     2     4     2
7     2     5     am
8     5     6     1
9     5     37    1
10    6     33    ar
11    6     7     ar
12    7     8     ar
13    7     38    1
14    8     9     ar
15    8     39    1
16    9     10    1
17    9     32    ar
18    10    11    1
19    10    40    1
20    10    41    1
21    11    12    1
22    11    42    1
23    11    43    1
24    12    13    am
25    12    44    1
26    13    14    2
27    13    15    1
28    15    31    ar
29    15    16    ar
30    16    27    ar
31    16    17    1
32    17    18    1
33    17    45    1
34    18    19    1
35    18    26    2
36    19    25    ar
37    19    20    ar
38    20    21    ar
39    20    46    1
40    21    22    ar
41    21    47    1
42    22    23    1
43    22    24    ar
44    24    25    ar
45    24    48    1
46    25    49    1
47    26    27    1
48    27    28    ar
49    28    29    1
50    28    30    ar
51    30    31    ar
52    30    50    1
53    31    51    1
54    32    33    ar
55    32    52    1
56    33    53    1
@<TRIPOS>SUBSTRUCTURE
1   ZINC000034000152 1     RESIDUE    1   A     ZIN   1
