@<TRIPOS>MOLECULE
ZINC000032983965
  43   45    0    0    0
SMALL
USER_CHARGES
NO_NAME
@<TRIPOS>ATOM
    1 C1        2.0177     1.0733     2.0953 C.3    1 <0>       0.0300
    2 O2        1.8355    -0.3266     1.8741 O.3    1 <0>      -0.3900
    3 C3        2.5653    -1.1579     2.7788 C.3    1 <0>       0.0500
    4 C4        2.2965    -2.6279     2.4507 C.3    1 <0>       0.1200
    5 N5        2.8314    -2.9375     1.1224 N.am   1 <0>      -0.7200
    6 C6        2.7092    -4.1821     0.6201 C.2    1 <0>       0.5600
    7 O7        2.1550    -5.0480     1.2693 O.2    1 <0>      -0.5300
    8 C8        3.2482    -4.4941    -0.7182 C.ar   1 <0>      -0.1200
    9 C9        3.8902    -3.5014    -1.4625 C.ar   1 <0>      -0.0700
   10 C10       4.3929    -3.7924    -2.7125 C.ar   1 <0>      -0.1100
   11 C11       4.2631    -5.0713    -3.2350 C.ar   1 <0>       0.0900
   12 O12       4.7578    -5.3551    -4.4707 O.3    1 <0>      -0.2200
   13 C13       5.1027    -6.6599    -4.6935 C.2    1 <0>      -0.0100
   14 C14       6.2009    -6.9866    -5.4101 C.2    1 <0>      -0.0300
   15 C15       6.9577    -5.9398    -6.1150 C.ar   1 <0>      -0.0600
   16 C16       6.4600    -4.6345    -6.1779 C.ar   1 <0>      -0.0900
   17 C17       7.1746    -3.6585    -6.8403 C.ar   1 <0>      -0.1100
   18 C18       8.3814    -3.9676    -7.4423 C.ar   1 <0>      -0.1000
   19 C19       8.8818    -5.2582    -7.3847 C.ar   1 <0>      -0.0400
   20 Cl20     10.3970    -5.6343    -8.1439 Cl     1 <0>      -0.0600
   21 C21       8.1812    -6.2440    -6.7204 C.ar   1 <0>      -0.0900
   22 C22       4.2214    -7.6972    -4.1165 C.2    1 <0>       0.5500
   23 O23       4.1527    -8.8099    -4.6040 O.2    1 <0>      -0.4900
   24 N24       3.4936    -7.3620    -3.0241 N.am   1 <0>      -0.6600
   25 C25       3.6234    -6.0700    -2.4966 C.ar   1 <0>       0.1000
   26 C26       3.1220    -5.7843    -1.2399 C.ar   1 <0>      -0.0600
   27 H27       3.0724     1.3246     1.9834 H      1 <0>       0.0400
   28 H28       1.4311     1.6354     1.3686 H      1 <0>       0.0900
   29 H29       1.6885     1.3279     3.1028 H      1 <0>       0.0400
   30 H30       3.6314    -0.9529     2.6810 H      1 <0>       0.0600
   31 H31       2.2475    -0.9496     3.8005 H      1 <0>       0.0700
   32 H32       2.7812    -3.2606     3.1941 H      1 <0>       0.0900
   33 H33       1.2222    -2.8120     2.4617 H      1 <0>       0.0800
   34 H34       3.2735    -2.2467     0.6045 H      1 <0>       0.4000
   35 H35       3.9924    -2.5051    -1.0583 H      1 <0>       0.1400
   36 H36       4.8884    -3.0234    -3.2866 H      1 <0>       0.1500
   37 H37       6.5231    -8.0159    -5.4655 H      1 <0>       0.1600
   38 H38       5.5178    -4.3914    -5.7092 H      1 <0>       0.1600
   39 H39       6.7910    -2.6501    -6.8894 H      1 <0>       0.1400
   40 H40       8.9359    -3.1990    -7.9601 H      1 <0>       0.1400
   41 H41       8.5720    -7.2499    -6.6760 H      1 <0>       0.1400
   42 H42       2.8934    -8.0046    -2.6144 H      1 <0>       0.4200
   43 H43       2.6304    -6.5551    -0.6650 H      1 <0>       0.1500
@<TRIPOS>BOND
   1    1    2 1
   2    1   27 1
   3    1   28 1
   4    1   29 1
   5    2    3 1
   6    3    4 1
   7    3   30 1
   8    3   31 1
   9    4    5 1
  10    4   32 1
  11    4   33 1
  12    5    6 am
  13    5   34 1
  14    6    7 2
  15    6    8 1
  16    8   26 ar
  17    8    9 ar
  18    9   10 ar
  19    9   35 1
  20   10   11 ar
  21   10   36 1
  22   11   25 ar
  23   11   12 1
  24   12   13 1
  25   13   14 2
  26   13   22 1
  27   14   15 1
  28   14   37 1
  29   15   21 ar
  30   15   16 ar
  31   16   17 ar
  32   16   38 1
  33   17   18 ar
  34   17   39 1
  35   18   19 ar
  36   18   40 1
  37   19   20 1
  38   19   21 ar
  39   21   41 1
  40   22   23 2
  41   22   24 am
  42   24   25 1
  43   24   42 1
  44   25   26 ar
  45   26   43 1
