@<TRIPOS>MOLECULE
ZINC000004374951
  30   31    0    0    0
SMALL
USER_CHARGES
NO_NAME
@<TRIPOS>ATOM
    1 C1       -0.0157     1.3058     0.0092 C.2    1 <0>      -0.1500
    2 C2        0.0021    -0.0041     0.0020 C.2    1 <0>      -0.1900
    3 C3       -1.2926    -0.7753     0.0102 C.3    1 <0>       0.1300
    4 N4       -1.3176    -1.6997    -1.1260 N.pl3  1 <0>      -0.6800
    5 C5       -2.4080    -2.5147    -1.3259 C.2    1 <0>       0.2000
    6 C6       -2.5284    -3.4207    -2.3577 C.2    1 <0>      -0.2400
    7 C7       -1.5138    -3.6137    -3.3498 C.1    1 <0>       0.2800
    8 N8       -0.7090    -3.7668    -4.1367 N.1    1 <0>      -0.4300
    9 C9       -3.7274    -4.1322    -2.3481 C.2    1 <0>       0.3800
   10 N10      -4.0535    -5.0929    -3.2948 N.pl3  1 <0>      -0.8200
   11 C11      -4.5522    -3.7862    -1.3075 C.2    1 <0>      -0.4500
   12 C12      -5.8235    -4.3481    -1.0591 C.2    1 <0>       0.5100
   13 O13      -6.2644    -5.2116    -1.8005 O.2    1 <0>      -0.4900
   14 C14      -6.6156    -3.8933     0.0917 C.2    1 <0>      -0.2800
   15 C15      -7.8504    -4.3619     0.4381 C.2    1 <0>      -0.0600
   16 C16      -8.3650    -3.7595     1.5632 C.2    1 <0>      -0.1500
   17 C17      -7.5796    -2.8305     2.1185 C.2    1 <0>      -0.2200
   18 S18      -6.1218    -2.6639     1.2478 S.3    1 <0>       0.1900
   19 S19      -3.7890    -2.5453    -0.3265 S.3    1 <0>       0.2400
   20 H20       0.9122     1.8585     0.0033 H      1 <0>       0.1100
   21 H21      -0.9582     1.8330     0.0166 H      1 <0>       0.1000
   22 H22       0.9446    -0.5313    -0.0098 H      1 <0>       0.1200
   23 H23      -1.3737    -1.3393     0.9394 H      1 <0>       0.0900
   24 H24      -2.1295    -0.0812    -0.0676 H      1 <0>       0.0800
   25 H25      -0.5655    -1.7372    -1.7373 H      1 <0>       0.4100
   26 H26      -3.4325    -5.2985    -4.0110 H      1 <0>       0.4000
   27 H27      -4.9026    -5.5588    -3.2405 H      1 <0>       0.4200
   28 H28      -8.3713    -5.1289    -0.1158 H      1 <0>       0.1500
   29 H29      -9.3325    -4.0178     1.9678 H      1 <0>       0.1500
   30 H30      -7.8324    -2.2642     3.0027 H      1 <0>       0.1700
@<TRIPOS>BOND
   1    1    2 2
   2    1   20 1
   3    1   21 1
   4    2    3 1
   5    2   22 1
   6    3    4 1
   7    3   23 1
   8    3   24 1
   9    4    5 1
  10    4   25 1
  11    5   19 1
  12    5    6 2
  13    6    7 1
  14    6    9 1
  15    7    8 3
  16    9   10 1
  17    9   11 2
  18   10   26 1
  19   10   27 1
  20   11   12 1
  21   11   19 1
  22   12   13 2
  23   12   14 1
  24   14   18 1
  25   14   15 2
  26   15   16 1
  27   15   28 1
  28   16   17 2
  29   16   29 1
  30   17   18 1
  31   17   30 1
