@<TRIPOS>MOLECULE
ZINC000049614860
94    99    1     0     0
SMALL
USER_CHARGES
@<TRIPOS>ATOM
1      C1     -0.0184    1.5028    0.0103 C.3      1 ZINC000049614860   -0.1100
2      C2      0.0021   -0.0041    0.0020 C.ar     1 ZINC000049614860   -0.1100
3      C3      0.0057   -0.6878   -1.2045 C.ar     1 ZINC000049614860   -0.0600
4      C4      0.0238   -2.0666   -1.2317 C.ar     1 ZINC000049614860   -0.1400
5      C5      0.0392   -2.7832   -0.0418 C.ar     1 ZINC000049614860    0.1400
6      O6      0.0576   -4.1325   -0.0467 O.3      1 ZINC000049614860   -0.2200
7      C7      0.0731   -4.8538    1.0848 C.2      1 ZINC000049614860    0.2200
8      C8      0.0932   -6.3252    0.9875 C.ar     1 ZINC000049614860   -0.1200
9      C9      0.1038   -7.1044    2.1480 C.ar     1 ZINC000049614860   -0.0400
10     C10     0.1221   -8.4781    2.0524 C.ar     1 ZINC000049614860   -0.1500
11     C11     0.1303   -9.0899    0.8045 C.ar     1 ZINC000049614860    0.1600
12     O12     0.1488  -10.4444    0.7149 O.3      1 ZINC000049614860   -0.3000
13     C13     0.1563  -11.0076   -0.5984 C.3      1 ZINC000049614860    0.0600
14     C14     0.1771  -12.5342   -0.4985 C.3      1 ZINC000049614860    0.0600
15     O15    -1.0378  -12.9889    0.1008 O.3      1 ZINC000049614860   -0.3700
16     C16    -1.1208  -14.4085    0.2414 C.3      1 ZINC000049614860    0.0700
17     C17    -2.4556  -14.7796    0.8906 C.3      1 ZINC000049614860    0.0600
18     O18    -3.5267  -14.4233    0.0145 O.3      1 ZINC000049614860   -0.3700
19     C19    -4.8245  -14.7292    0.5287 C.3      1 ZINC000049614860    0.0600
20     C20    -5.8880  -14.3072   -0.4870 C.3      1 ZINC000049614860    0.0600
21     O21    -5.7551  -15.0956   -1.6714 O.3      1 ZINC000049614860   -0.3700
22     C22    -6.7065  -14.7797   -2.6898 C.3      1 ZINC000049614860    0.0600
23     C23    -6.4716  -15.6801   -3.9042 C.3      1 ZINC000049614860    0.0700
24     O24    -6.7359  -17.0386   -3.5482 O.3      1 ZINC000049614860   -0.3700
25     C25    -6.5455  -17.9672   -4.6175 C.3      1 ZINC000049614860    0.0600
26     C26    -6.8552  -19.3824   -4.1252 C.3      1 ZINC000049614860    0.0600
27     O27    -8.2400  -19.4760   -3.7853 O.3      1 ZINC000049614860   -0.3000
28     C28    -8.6826  -20.6750   -3.3276 C.ar     1 ZINC000049614860    0.1600
29     C29    -7.7970  -21.7389   -3.2033 C.ar     1 ZINC000049614860   -0.2200
30     C30    -8.2417  -22.9571   -2.7398 C.ar     1 ZINC000049614860   -0.0300
31     C31    -9.5860  -23.1225   -2.3938 C.ar     1 ZINC000049614860   -0.1200
32     C32   -10.0668  -24.4251   -1.8966 C.2      1 ZINC000049614860    0.2200
33     C33   -11.3828  -24.5568   -1.5728 C.2      1 ZINC000049614860   -0.3300
34     C34   -11.8614  -25.7976   -1.0947 C.2      1 ZINC000049614860    0.4200
35     O35   -13.0339  -25.9523   -0.7954 O.2      1 ZINC000049614860   -0.4700
36     C36   -10.8861  -26.8997   -0.9723 C.ar     1 ZINC000049614860   -0.2200
37     C37   -11.2685  -28.1574   -0.5104 C.ar     1 ZINC000049614860   -0.0300
38     C38   -10.3282  -29.1602   -0.4108 C.ar     1 ZINC000049614860   -0.1100
39     C39   -10.7347  -30.5231    0.0875 C.3      1 ZINC000049614860   -0.1100
40     C40    -9.0098  -28.9205   -0.7677 C.ar     1 ZINC000049614860   -0.0600
41     C41    -8.6192  -27.6797   -1.2258 C.ar     1 ZINC000049614860   -0.1400
42     C42    -9.5517  -26.6558   -1.3339 C.ar     1 ZINC000049614860    0.1400
43     O43    -9.1915  -25.4363   -1.7858 O.3      1 ZINC000049614860   -0.2200
44     C44   -10.4731  -22.0496   -2.5200 C.ar     1 ZINC000049614860   -0.0400
45     C45   -10.0187  -20.8334   -2.9794 C.ar     1 ZINC000049614860   -0.1500
46     C46     0.1193   -8.3191   -0.3519 C.ar     1 ZINC000049614860   -0.2200
47     C47     0.0957   -6.9448   -0.2656 C.ar     1 ZINC000049614860   -0.0300
48     C48     0.0716   -4.2794    2.3194 C.2      1 ZINC000049614860   -0.3300
49     C49     0.0530   -2.8708    2.4321 C.2      1 ZINC000049614860    0.4200
50     O50     0.0514   -2.3218    3.5216 O.2      1 ZINC000049614860   -0.4700
51     C51     0.0360   -2.0898    1.1789 C.ar     1 ZINC000049614860   -0.2200
52     C52     0.0228   -0.6966    1.1936 C.ar     1 ZINC000049614860   -0.0300
53     H53     1.0042    1.8801    0.0026 H        1 ZINC000049614860    0.0700
54     H54    -0.5455    1.8639   -0.8728 H        1 ZINC000049614860    0.0700
55     H55    -0.5286    1.8543    0.9071 H        1 ZINC000049614860    0.0700
56     H56    -0.0062   -0.1350   -2.1322 H        1 ZINC000049614860    0.1400
57     H57     0.0258   -2.5886   -2.1772 H        1 ZINC000049614860    0.1400
58     H58     0.0981   -6.6298    3.1181 H        1 ZINC000049614860    0.1400
59     H59     0.1303   -9.0809    2.9485 H        1 ZINC000049614860    0.1400
60     H60    -0.7381  -10.6907   -1.1348 H        1 ZINC000049614860    0.0800
61     H61     1.0417  -10.6665   -1.1349 H        1 ZINC000049614860    0.0800
62     H62     0.2725  -12.9623   -1.4964 H        1 ZINC000049614860    0.0700
63     H63     1.0233  -12.8468    0.1133 H        1 ZINC000049614860    0.0600
64     H64    -1.0523  -14.8756   -0.7411 H        1 ZINC000049614860    0.0600
65     H65    -0.3015  -14.7600    0.8686 H        1 ZINC000049614860    0.0700
66     H66    -2.4820  -15.8529    1.0790 H        1 ZINC000049614860    0.0700
67     H67    -2.5630  -14.2425    1.8330 H        1 ZINC000049614860    0.0600
68     H68    -4.9001  -15.8015    0.7096 H        1 ZINC000049614860    0.0600
69     H69    -4.9810  -14.1911    1.4636 H        1 ZINC000049614860    0.0700
70     H70    -6.8791  -14.4583   -0.0593 H        1 ZINC000049614860    0.0700
71     H71    -5.7560  -13.2540   -0.7349 H        1 ZINC000049614860    0.0600
72     H72    -7.7146  -14.9406   -2.3077 H        1 ZINC000049614860    0.0600
73     H73    -6.5914  -13.7363   -2.9834 H        1 ZINC000049614860    0.0700
74     H74    -7.1377  -15.3802   -4.7131 H        1 ZINC000049614860    0.0700
75     H75    -5.4363  -15.5853   -4.2320 H        1 ZINC000049614860    0.0600
76     H76    -7.2132  -17.7148   -5.4412 H        1 ZINC000049614860    0.0600
77     H77    -5.5118  -17.9199   -4.9601 H        1 ZINC000049614860    0.0700
78     H78    -6.6251  -20.0996   -4.9130 H        1 ZINC000049614860    0.0800
79     H79    -6.2496  -19.6018   -3.2459 H        1 ZINC000049614860    0.0800
80     H80    -6.7586  -21.6102   -3.4709 H        1 ZINC000049614860    0.1400
81     H81    -7.5531  -23.7835   -2.6442 H        1 ZINC000049614860    0.1400
82     H82   -12.0559  -23.7191   -1.6802 H        1 ZINC000049614860    0.1600
83     H83   -12.2950  -28.3451   -0.2319 H        1 ZINC000049614860    0.1400
84     H84   -11.0404  -31.1421   -0.7561 H        1 ZINC000049614860    0.0700
85     H85    -9.8910  -30.9911    0.5946 H        1 ZINC000049614860    0.0700
86     H86   -11.5668  -30.4219    0.7842 H        1 ZINC000049614860    0.0700
87     H87    -8.2813  -29.7136   -0.6857 H        1 ZINC000049614860    0.1400
88     H88    -7.5895  -27.5043   -1.5002 H        1 ZINC000049614860    0.1400
89     H89   -11.5125  -22.1730   -2.2538 H        1 ZINC000049614860    0.1400
90     H90   -10.7033  -20.0038   -3.0768 H        1 ZINC000049614860    0.1400
91     H91     0.1254   -8.7986   -1.3196 H        1 ZINC000049614860    0.1400
92     H92     0.0868   -6.3466   -1.1647 H        1 ZINC000049614860    0.1400
93     H93     0.0841   -4.8959    3.2061 H        1 ZINC000049614860    0.1600
94     H94     0.0245   -0.1629    2.1325 H        1 ZINC000049614860    0.1400
@<TRIPOS>BOND
1     1     2     1
2     1     53    1
3     1     54    1
4     1     55    1
5     2     52    ar
6     2     3     ar
7     3     4     ar
8     3     56    1
9     4     5     ar
10    4     57    1
11    5     51    ar
12    5     6     1
13    6     7     1
14    7     8     1
15    7     48    2
16    8     47    ar
17    8     9     ar
18    9     10    ar
19    9     58    1
20    10    11    ar
21    10    59    1
22    11    12    1
23    11    46    ar
24    12    13    1
25    13    14    1
26    13    60    1
27    13    61    1
28    14    15    1
29    14    62    1
30    14    63    1
31    15    16    1
32    16    17    1
33    16    64    1
34    16    65    1
35    17    18    1
36    17    66    1
37    17    67    1
38    18    19    1
39    19    20    1
40    19    68    1
41    19    69    1
42    20    21    1
43    20    70    1
44    20    71    1
45    21    22    1
46    22    23    1
47    22    72    1
48    22    73    1
49    23    24    1
50    23    74    1
51    23    75    1
52    24    25    1
53    25    26    1
54    25    76    1
55    25    77    1
56    26    27    1
57    26    78    1
58    26    79    1
59    27    28    1
60    28    45    ar
61    28    29    ar
62    29    30    ar
63    29    80    1
64    30    31    ar
65    30    81    1
66    31    32    1
67    31    44    ar
68    32    43    1
69    32    33    2
70    33    34    1
71    33    82    1
72    34    35    2
73    34    36    1
74    36    42    ar
75    36    37    ar
76    37    38    ar
77    37    83    1
78    38    39    1
79    38    40    ar
80    39    84    1
81    39    85    1
82    39    86    1
83    40    41    ar
84    40    87    1
85    41    42    ar
86    41    88    1
87    42    43    1
88    44    45    ar
89    44    89    1
90    45    90    1
91    46    47    ar
92    46    91    1
93    47    92    1
94    48    49    1
95    48    93    1
96    49    50    2
97    49    51    1
98    51    52    ar
99    52    94    1
@<TRIPOS>SUBSTRUCTURE
1   ZINC000049614860 1     RESIDUE    1   A     ZIN   1
