@<TRIPOS>MOLECULE
ZINC000020148984
  41   45    0    0    0
SMALL
USER_CHARGES
NO_NAME
@<TRIPOS>ATOM
    1 N1       -0.0189     1.3773    -0.0139 N.pl3  1 <0>      -0.8300
    2 C2        0.0002    -0.0040    -0.0175 C.ar   1 <0>       0.5200
    3 C3       -1.1898    -0.7407     0.0997 C.ar   1 <0>      -0.3200
    4 C4       -2.6058    -0.4028     0.2412 C.2    1 <0>       0.1800
    5 C5       -3.1812     0.9625     0.3002 C.ar   1 <0>      -0.1100
    6 C6       -2.7572     1.9486    -0.5947 C.ar   1 <0>       0.1500
    7 N7       -3.2539     3.1650    -0.5593 N.ar   1 <0>      -0.4900
    8 C8       -4.1797     3.5182     0.3234 C.ar   1 <0>       0.2900
    9 N9       -4.8452     4.6967     0.5634 N.pl3  1 <0>      -0.5800
   10 C10      -5.7185     4.5387     1.6059 C.2    1 <0>       0.0700
   11 C11      -5.6540     3.2813     2.0706 C.2    1 <0>      -0.1900
   12 C12      -4.6580     2.5790     1.2584 C.ar   1 <0>      -0.1500
   13 C13      -4.1565     1.2776     1.2454 C.ar   1 <0>       0.0100
   14 N14      -3.2728    -1.5306     0.3064 N.2    1 <0>      -0.2300
   15 N15      -2.3894    -2.6116     0.2170 N.pl3  1 <0>      -0.3700
   16 C16      -2.7748    -4.0246     0.2530 C.3    1 <0>       0.1600
   17 C17      -3.5473    -4.3287     1.5532 C.3    1 <0>      -0.1300
   18 C18      -5.0371    -4.2123     1.1460 C.3    1 <0>      -0.1200
   19 C19      -5.0515    -4.8246    -0.2767 C.3    1 <0>      -0.1200
   20 C20      -3.7312    -4.3399    -0.9105 C.3    1 <0>      -0.1300
   21 C21      -1.1145    -2.1462     0.0906 C.ar   1 <0>       0.3800
   22 N22       0.0820    -2.7211    -0.0285 N.ar   1 <0>      -0.5700
   23 C23       1.1700    -1.9902    -0.1352 C.ar   1 <0>       0.3900
   24 N24       1.1450    -0.6694    -0.1376 N.ar   1 <0>      -0.6000
   25 H25       0.7538     1.8739    -0.3258 H      1 <0>       0.4100
   26 H26      -0.8065     1.8507     0.2968 H      1 <0>       0.4100
   27 H27      -2.0051     1.7062    -1.3309 H      1 <0>       0.1700
   28 H28      -4.7149     5.5199     0.0671 H      1 <0>       0.4200
   29 H29      -6.3634     5.3117     1.9969 H      1 <0>       0.1800
   30 H30      -6.2265     2.8668     2.8872 H      1 <0>       0.1600
   31 H31      -4.5106     0.5375     1.9478 H      1 <0>       0.1400
   32 H32      -1.8879    -4.6550     0.1886 H      1 <0>       0.1100
   33 H33      -3.3249    -5.3371     1.9021 H      1 <0>       0.0800
   34 H34      -3.3035    -3.5956     2.3221 H      1 <0>       0.0700
   35 H35      -5.6685    -4.7896     1.8214 H      1 <0>       0.0700
   36 H36      -5.3502    -3.1685     1.1205 H      1 <0>       0.0800
   37 H37      -5.0720    -5.9131    -0.2233 H      1 <0>       0.0700
   38 H38      -5.9055    -4.4533    -0.8432 H      1 <0>       0.0700
   39 H39      -3.9086    -3.4416    -1.5019 H      1 <0>       0.0800
   40 H40      -3.3088    -5.1239    -1.5390 H      1 <0>       0.0800
   41 H41       2.1225    -2.4903    -0.2297 H      1 <0>       0.2100
@<TRIPOS>BOND
   1    1    2 1
   2    1   25 1
   3    1   26 1
   4    2   24 ar
   5    2    3 ar
   6    3   21 ar
   7    3    4 1
   8    4    5 1
   9    4   14 2
  10    5   13 ar
  11    5    6 ar
  12    6    7 ar
  13    6   27 1
  14    7    8 ar
  15    8   12 ar
  16    8    9 1
  17    9   10 1
  18    9   28 1
  19   10   11 2
  20   10   29 1
  21   11   12 1
  22   11   30 1
  23   12   13 ar
  24   13   31 1
  25   14   15 1
  26   15   16 1
  27   15   21 1
  28   16   20 1
  29   16   17 1
  30   16   32 1
  31   17   18 1
  32   17   33 1
  33   17   34 1
  34   18   19 1
  35   18   35 1
  36   18   36 1
  37   19   20 1
  38   19   37 1
  39   19   38 1
  40   20   39 1
  41   20   40 1
  42   21   22 ar
  43   22   23 ar
  44   23   24 ar
  45   23   41 1
