@<TRIPOS>MOLECULE
ZINC000003815299
43    46    1     0     0
SMALL
USER_CHARGES
@<TRIPOS>ATOM
1      C1      0.6781    1.4224    0.0437 C.3      1 ZINC000003815299    0.0700
2      N2      0.4968   -0.0312    0.0258 N.am     1 ZINC000003815299   -0.5100
3      C3      0.5333   -0.6931   -1.1466 C.2      1 ZINC000003815299    0.5600
4      O4      0.7170   -0.0801   -2.1831 O.2      1 ZINC000003815299   -0.5200
5      C5      0.3538   -2.1462   -1.1816 C.2      1 ZINC000003815299   -0.1900
6      C6      0.3946   -2.8735   -2.4717 C.ar     1 ZINC000003815299    0.0000
7      C7      1.6040   -3.3725   -2.9569 C.ar     1 ZINC000003815299   -0.0100
8      Cl8     3.0662   -3.1434   -2.0497 Cl       1 ZINC000003815299   -0.0500
9      C9      1.6351   -4.0496   -4.1603 C.ar     1 ZINC000003815299   -0.1100
10     C10     0.4709   -4.2330   -4.8845 C.ar     1 ZINC000003815299   -0.0900
11     C11    -0.7312   -3.7405   -4.4094 C.ar     1 ZINC000003815299   -0.1100
12     C12    -0.7772   -3.0674   -3.2042 C.ar     1 ZINC000003815299   -0.0100
13     Cl13   -2.2869   -2.4501   -2.6096 Cl       1 ZINC000003815299   -0.0500
14     C14     0.1485   -2.8265   -0.0114 C.2      1 ZINC000003815299    0.0500
15     C15     0.1151   -2.1051    1.2038 C.ar     1 ZINC000003815299   -0.2900
16     C16    -0.0916   -2.7553    2.4297 C.ar     1 ZINC000003815299    0.2700
17     N17    -0.1128   -2.0313    3.5331 N.ar     1 ZINC000003815299   -0.5500
18     C18     0.0569   -0.7143    3.4948 C.ar     1 ZINC000003815299    0.6100
19     N19     0.0256   -0.0045    4.6799 N.pl3    1 ZINC000003815299   -0.6200
20     C20    -0.0645   -0.6832    5.8992 C.ar     1 ZINC000003815299    0.1200
21     C21    -0.7689   -0.1208    6.9572 C.ar     1 ZINC000003815299   -0.1500
22     C22    -0.8613   -0.7873    8.1652 C.ar     1 ZINC000003815299   -0.1200
23     C23    -0.2546   -2.0152    8.3293 C.ar     1 ZINC000003815299   -0.0900
24     C24     0.4563   -2.5900    7.2722 C.ar     1 ZINC000003815299   -0.1200
25     C25     1.1065   -3.9034    7.4444 C.2      1 ZINC000003815299    0.5200
26     O26     1.0239   -4.4910    8.5137 O.co2    1 ZINC000003815299   -0.6900
27     O27     1.7279   -4.4042    6.5179 O.co2    1 ZINC000003815299   -0.6800
28     C28     0.5442   -1.9196    6.0509 C.ar     1 ZINC000003815299   -0.0700
29     N29     0.2555   -0.0568    2.3627 N.ar     1 ZINC000003815299   -0.6000
30     C30     0.2971   -0.7051    1.2042 C.ar     1 ZINC000003815299    0.4700
31     H31     1.7380    1.6551    0.1470 H        1 ZINC000003815299    0.0700
32     H32     0.3020    1.8470   -0.8871 H        1 ZINC000003815299    0.0900
33     H33     0.1293    1.8467    0.8845 H        1 ZINC000003815299    0.0900
34     H34     2.5705   -4.4363   -4.5370 H        1 ZINC000003815299    0.1400
35     H35     0.5007   -4.7629   -5.8251 H        1 ZINC000003815299    0.1400
36     H36    -1.6366   -3.8864   -4.9799 H        1 ZINC000003815299    0.1400
37     H37     0.0136   -3.8981   -0.0166 H        1 ZINC000003815299    0.1500
38     H38    -0.2308   -3.8256    2.4697 H        1 ZINC000003815299    0.1900
39     H39     0.0660    0.9646    4.6661 H        1 ZINC000003815299    0.4200
40     H40    -1.2456    0.8406    6.8355 H        1 ZINC000003815299    0.1200
41     H41    -1.4102   -0.3447    8.9833 H        1 ZINC000003815299    0.1200
42     H42    -0.3286   -2.5322    9.2746 H        1 ZINC000003815299    0.1300
43     H43     1.0917   -2.3584    5.2299 H        1 ZINC000003815299    0.1400
@<TRIPOS>BOND
1     1     2     1
2     1     31    1
3     1     32    1
4     1     33    1
5     2     30    1
6     2     3     am
7     3     4     2
8     3     5     1
9     5     6     1
10    5     14    2
11    6     12    ar
12    6     7     ar
13    7     8     1
14    7     9     ar
15    9     10    ar
16    9     34    1
17    10    11    ar
18    10    35    1
19    11    12    ar
20    11    36    1
21    12    13    1
22    14    15    1
23    14    37    1
24    15    30    ar
25    15    16    ar
26    16    17    ar
27    16    38    1
28    17    18    ar
29    18    19    1
30    18    29    ar
31    19    20    1
32    19    39    1
33    20    28    ar
34    20    21    ar
35    21    22    ar
36    21    40    1
37    22    23    ar
38    22    41    1
39    23    24    ar
40    23    42    1
41    24    25    1
42    24    28    ar
43    25    26    ar
44    25    27    ar
45    28    43    1
46    29    30    ar
@<TRIPOS>SUBSTRUCTURE
1   ZINC000003815299 1     RESIDUE    1   A     ZIN   1
