@<TRIPOS>MOLECULE
ZINC000045245380
52    54    1     0     0
SMALL
USER_CHARGES
@<TRIPOS>ATOM
1      C1      0.4307    1.7019    0.7477 C.3      1 ZINC000045245380   -0.1500
2      C2      0.3080    0.1938    0.5202 C.3      1 ZINC000045245380   -0.1100
3      C3      1.0128   -0.5521    1.6550 C.3      1 ZINC000045245380   -0.1100
4      C4      0.8920   -2.0374    1.4310 C.2      1 ZINC000045245380    0.2700
5      C5      1.8087   -2.6819    0.6243 C.2      1 ZINC000045245380   -0.2500
6      C6      2.8981   -1.9219   -0.0134 C.2      1 ZINC000045245380    0.5300
7      O7      2.9256   -0.7101    0.0738 O.2      1 ZINC000045245380   -0.5000
8      O8      3.8640   -2.5706   -0.6934 O.3      1 ZINC000045245380   -0.3500
9      C9      4.9057   -1.7578   -1.2956 C.3      1 ZINC000045245380    0.0700
10     C10     5.9046   -2.6630   -2.0192 C.3      1 ZINC000045245380   -0.1600
11     C11     1.6960   -4.0763    0.4140 C.2      1 ZINC000045245380    0.0400
12     C12     0.6643   -4.7598    1.0260 C.2      1 ZINC000045245380   -0.1600
13     C13     0.5123   -6.2215    0.8310 C.2      1 ZINC000045245380    0.1300
14     C14     1.3530   -6.9519    0.0697 C.2      1 ZINC000045245380   -0.2500
15     S15     0.8073   -8.6264    0.1154 S.3      1 ZINC000045245380    0.1700
16     C16    -0.4867   -8.1905    1.1435 C.2      1 ZINC000045245380    0.0200
17     C17    -1.5128   -9.1510    1.6871 C.3      1 ZINC000045245380   -0.5300
18     S18    -2.9143   -9.2517    0.5398 S.o2     1 ZINC000045245380    2.5000
19     O19    -3.6345   -8.0268    0.5236 O.2      1 ZINC000045245380   -0.9100
20     O20    -2.5242   -9.8883   -0.6693 O.2      1 ZINC000045245380   -0.9200
21     C21    -4.0203  -10.3961    1.2961 C.ar     1 ZINC000045245380   -0.6600
22     C22    -3.9132  -11.7463    1.0199 C.ar     1 ZINC000045245380   -0.0200
23     C23    -4.7809  -12.6441    1.6133 C.ar     1 ZINC000045245380   -0.1400
24     C24    -5.7553  -12.1917    2.4832 C.ar     1 ZINC000045245380   -0.0600
25     C25    -5.8618  -10.8415    2.7601 C.ar     1 ZINC000045245380   -0.1400
26     C26    -4.9914   -9.9442    2.1700 C.ar     1 ZINC000045245380   -0.0200
27     N27    -0.4582   -6.9271    1.3937 N.2      1 ZINC000045245380   -0.4100
28     C28    -0.2479   -4.0455    1.8441 C.2      1 ZINC000045245380    0.5300
29     O29    -1.1632   -4.6366    2.3909 O.2      1 ZINC000045245380   -0.4800
30     N30    -0.1050   -2.7200    2.0243 N.am     1 ZINC000045245380   -0.5900
31     H31     1.4840    1.9818    0.7675 H        1 ZINC000045245380    0.0600
32     H32    -0.0714    2.2333   -0.0607 H        1 ZINC000045245380    0.0600
33     H33    -0.0330    1.9648    1.6984 H        1 ZINC000045245380    0.0500
34     H34    -0.7452   -0.0861    0.5005 H        1 ZINC000045245380    0.0600
35     H35     0.7718   -0.0691   -0.4305 H        1 ZINC000045245380    0.0800
36     H36     2.0661   -0.2721    1.6748 H        1 ZINC000045245380    0.1300
37     H37     0.5491   -0.2891    2.6058 H        1 ZINC000045245380    0.0800
38     H38     4.4593   -1.0657   -2.0096 H        1 ZINC000045245380    0.0700
39     H39     5.4223   -1.1949   -0.5183 H        1 ZINC000045245380    0.0700
40     H40     5.3880   -3.2260   -2.7965 H        1 ZINC000045245380    0.0700
41     H41     6.6866   -2.0529   -2.4713 H        1 ZINC000045245380    0.0800
42     H42     6.3510   -3.3552   -1.3052 H        1 ZINC000045245380    0.0700
43     H43     2.4038   -4.5966   -0.2142 H        1 ZINC000045245380    0.1500
44     H44     2.2088   -6.5767   -0.4717 H        1 ZINC000045245380    0.1900
45     H45    -1.0635  -10.1377    1.7993 H        1 ZINC000045245380    0.1600
46     H46    -1.8623   -8.7984    2.6575 H        1 ZINC000045245380    0.1700
47     H47    -3.1519  -12.0998    0.3403 H        1 ZINC000045245380    0.1400
48     H48    -4.6977  -13.6989    1.3969 H        1 ZINC000045245380    0.1400
49     H49    -6.4336  -12.8930    2.9462 H        1 ZINC000045245380    0.1300
50     H50    -6.6233  -10.4880    3.4394 H        1 ZINC000045245380    0.1400
51     H51    -5.0745   -8.8894    2.3864 H        1 ZINC000045245380    0.1400
52     H52    -0.7369   -2.2457    2.5870 H        1 ZINC000045245380    0.4200
@<TRIPOS>BOND
1     1     2     1
2     1     31    1
3     1     32    1
4     1     33    1
5     2     3     1
6     2     34    1
7     2     35    1
8     3     4     1
9     3     36    1
10    3     37    1
11    4     30    1
12    4     5     2
13    5     6     1
14    5     11    1
15    6     7     2
16    6     8     1
17    8     9     1
18    9     10    1
19    9     38    1
20    9     39    1
21    10    40    1
22    10    41    1
23    10    42    1
24    11    12    2
25    11    43    1
26    12    13    1
27    12    28    1
28    13    27    1
29    13    14    2
30    14    15    1
31    14    44    1
32    15    16    1
33    16    17    1
34    16    27    2
35    17    18    1
36    17    45    1
37    17    46    1
38    18    19    2
39    18    20    2
40    18    21    1
41    21    26    ar
42    21    22    ar
43    22    23    ar
44    22    47    1
45    23    24    ar
46    23    48    1
47    24    25    ar
48    24    49    1
49    25    26    ar
50    25    50    1
51    26    51    1
52    28    29    2
53    28    30    am
54    30    52    1
@<TRIPOS>SUBSTRUCTURE
1   ZINC000045245380 1     RESIDUE    1   A     ZIN   1
