@<TRIPOS>MOLECULE
ZINC000003869855
35    38    1     0     0
SMALL
USER_CHARGES
@<TRIPOS>ATOM
1      O1      0.0021   -0.0041    0.0020 O.2      1 ZINC000003869855   -0.4900
2      C2     -0.0145    1.2145    0.0087 C.2      1 ZINC000003869855    0.4900
3      O3     -1.1964    1.8509    0.0290 O.3      1 ZINC000003869855   -0.3100
4      C4     -1.2758    3.1991    0.0372 C.ar     1 ZINC000003869855    0.1500
5      C5     -2.5090    3.8368    0.0587 C.ar     1 ZINC000003869855   -0.1600
6      C6     -2.5719    5.2147    0.0673 C.ar     1 ZINC000003869855   -0.1000
7      C7     -1.4123    5.9753    0.0547 C.ar     1 ZINC000003869855   -0.1800
8      C8     -0.1787    5.3624    0.0334 C.ar     1 ZINC000003869855   -0.0500
9      C9     -0.1010    3.9685    0.0245 C.ar     1 ZINC000003869855   -0.1500
10     C10     1.1993    3.2807    0.0023 C.2      1 ZINC000003869855    0.3100
11     O11     2.3570    3.9799   -0.0104 O.3      1 ZINC000003869855   -0.6400
12     C12     1.2025    1.9131    0.0009 C.2      1 ZINC000003869855   -0.4400
13     C13     2.5073    1.1595   -0.0215 C.3      1 ZINC000003869855    0.1100
14     C14     2.9037    0.7996    1.3872 C.2      1 ZINC000003869855   -0.4400
15     C15     2.5858   -0.4289    1.8974 C.2      1 ZINC000003869855    0.3100
16     O16     1.9148   -1.3389    1.1552 O.3      1 ZINC000003869855   -0.6400
17     C17     2.9961   -0.7309    3.2776 C.ar     1 ZINC000003869855   -0.1500
18     C18     2.7050   -1.9651    3.8616 C.ar     1 ZINC000003869855   -0.0500
19     C19     3.1036   -2.2166    5.1560 C.ar     1 ZINC000003869855   -0.1800
20     C20     3.7901   -1.2512    5.8771 C.ar     1 ZINC000003869855   -0.1000
21     C21     4.0836   -0.0276    5.3121 C.ar     1 ZINC000003869855   -0.1600
22     C22     3.6914    0.2461    4.0085 C.ar     1 ZINC000003869855    0.1500
23     O23     3.9709    1.4387    3.4396 O.3      1 ZINC000003869855   -0.3100
24     C24     3.6057    1.7212    2.1789 C.2      1 ZINC000003869855    0.4900
25     O25     3.8827    2.8125    1.7125 O.2      1 ZINC000003869855   -0.4900
26     H26    -3.4184    3.2543    0.0683 H        1 ZINC000003869855    0.1200
27     H27    -3.5335    5.7061    0.0837 H        1 ZINC000003869855    0.1200
28     H28    -1.4767    7.0534    0.0613 H        1 ZINC000003869855    0.1100
29     H29     0.7230    5.9568    0.0240 H        1 ZINC000003869855    0.1300
30     H30     2.3913    0.2494   -0.6101 H        1 ZINC000003869855    0.0400
31     H31     3.2805    1.7848   -0.4680 H        1 ZINC000003869855    0.0400
32     H32     2.1702   -2.7182    3.3019 H        1 ZINC000003869855    0.1300
33     H33     2.8801   -3.1700    5.6116 H        1 ZINC000003869855    0.1100
34     H34     4.0977   -1.4594    6.8913 H        1 ZINC000003869855    0.1200
35     H35     4.6181    0.7171    5.8831 H        1 ZINC000003869855    0.1200
@<TRIPOS>BOND
1     1     2     2
2     2     12    1
3     2     3     1
4     3     4     1
5     4     9     ar
6     4     5     ar
7     5     6     ar
8     5     26    1
9     6     7     ar
10    6     27    1
11    7     8     ar
12    7     28    1
13    8     9     ar
14    8     29    1
15    9     10    1
16    10    11    1
17    10    12    2
18    12    13    1
19    13    14    1
20    13    30    1
21    13    31    1
22    14    24    1
23    14    15    2
24    15    16    1
25    15    17    1
26    17    22    ar
27    17    18    ar
28    18    19    ar
29    18    32    1
30    19    20    ar
31    19    33    1
32    20    21    ar
33    20    34    1
34    21    22    ar
35    21    35    1
36    22    23    1
37    23    24    1
38    24    25    2
@<TRIPOS>SUBSTRUCTURE
1   ZINC000003869855 1     RESIDUE    1   A     ZIN   1
