@<TRIPOS>MOLECULE
ZINC000000968328
43    45    1     0     0
SMALL
USER_CHARGES
@<TRIPOS>ATOM
1      C1     -0.0178    1.4608    0.0101 C.3      1 ZINC000000968328    0.0900
2      N2      0.0021   -0.0041    0.0020 N.pl3    1 ZINC000000968328   -0.6100
3      C3      0.0241   -0.7433    1.2666 C.3      1 ZINC000000968328    0.1300
4      C4     -1.4105   -1.0203    1.7205 C.3      1 ZINC000000968328    0.0400
5      O5     -2.0465   -1.8923    0.7840 O.3      1 ZINC000000968328   -0.2900
6      C6     -3.3348   -2.2400    1.0412 C.ar     1 ZINC000000968328    0.1200
7      C7     -3.9756   -1.7474    2.1688 C.ar     1 ZINC000000968328   -0.2100
8      C8     -5.2854   -2.1021    2.4278 C.ar     1 ZINC000000968328   -0.0500
9      C9     -5.9575   -2.9475    1.5646 C.ar     1 ZINC000000968328   -0.1100
10     C10    -7.3862   -3.3331    1.8499 C.3      1 ZINC000000968328   -0.0400
11     C11    -8.3282   -2.3252    1.1885 C.3      1 ZINC000000968328   -0.0900
12     H12    -8.1081   -2.2345    0.1248 H        1 ZINC000000968328    0.1100
13     S13    -8.2158   -0.7006    2.0115 S.3      1 ZINC000000968328   -0.4000
14     C14    -9.9146   -0.6919    2.5184 C.2      1 ZINC000000968328    0.5800
15     O15   -10.4712    0.1877    3.1466 O.2      1 ZINC000000968328   -0.5100
16     N16   -10.4722   -1.8248    2.0862 N.pl3    1 ZINC000000968328   -0.7200
17     C17    -9.7725   -2.7215    1.4041 C.2      1 ZINC000000968328    0.5200
18     O18   -10.2463   -3.7602    0.9962 O.2      1 ZINC000000968328   -0.5400
19     C19    -5.3213   -3.4395    0.4399 C.ar     1 ZINC000000968328   -0.0800
20     C20    -4.0133   -3.0837    0.1736 C.ar     1 ZINC000000968328   -0.1500
21     C21     0.0000   -0.6926   -1.2056 C.ar     1 ZINC000000968328    0.4100
22     C22     0.0902    0.0126   -2.4011 C.ar     1 ZINC000000968328   -0.2400
23     C23     0.0875   -0.6853   -3.5956 C.ar     1 ZINC000000968328   -0.0400
24     C24    -0.0057   -2.0699   -3.5539 C.ar     1 ZINC000000968328   -0.2400
25     C25    -0.0922   -2.7053   -2.3312 C.ar     1 ZINC000000968328    0.1500
26     N26    -0.0823   -2.0143   -1.2072 N.ar     1 ZINC000000968328   -0.5200
27     H27     1.0048    1.8381    0.0023 H        1 ZINC000000968328    0.0500
28     H28    -0.5450    1.8219   -0.8730 H        1 ZINC000000968328    0.0700
29     H29    -0.5280    1.8123    0.9069 H        1 ZINC000000968328    0.0700
30     H30     0.5496   -1.6879    1.1262 H        1 ZINC000000968328    0.0900
31     H31     0.5371   -0.1514    2.0246 H        1 ZINC000000968328    0.0900
32     H32    -1.3961   -1.4911    2.7035 H        1 ZINC000000968328    0.0700
33     H33    -1.9619   -0.0816    1.7754 H        1 ZINC000000968328    0.0600
34     H34    -3.4507   -1.0876    2.8437 H        1 ZINC000000968328    0.1200
35     H35    -5.7846   -1.7188    3.3055 H        1 ZINC000000968328    0.1300
36     H36    -7.5805   -4.3285    1.4504 H        1 ZINC000000968328    0.0900
37     H37    -7.5539   -3.3347    2.9269 H        1 ZINC000000968328    0.0800
38     H38    -5.8486   -4.0994   -0.2330 H        1 ZINC000000968328    0.1300
39     H39    -3.5167   -3.4682   -0.7050 H        1 ZINC000000968328    0.1200
40     H40     0.1610    1.0902   -2.3970 H        1 ZINC000000968328    0.1300
41     H41     0.1559   -0.1647   -4.5394 H        1 ZINC000000968328    0.1300
42     H42    -0.0107   -2.6441   -4.4686 H        1 ZINC000000968328    0.1300
43     H43    -0.1648   -3.7823   -2.2941 H        1 ZINC000000968328    0.1500
@<TRIPOS>BOND
1     1     2     1
2     1     27    1
3     1     28    1
4     1     29    1
5     2     3     1
6     2     21    1
7     3     4     1
8     3     30    1
9     3     31    1
10    4     5     1
11    4     32    1
12    4     33    1
13    5     6     1
14    6     20    ar
15    6     7     ar
16    7     8     ar
17    7     34    1
18    8     9     ar
19    8     35    1
20    9     10    1
21    9     19    ar
22    10    11    1
23    10    36    1
24    10    37    1
25    11    12    1
26    11    17    1
27    11    13    1
28    13    14    1
29    14    15    2
30    14    16    1
31    16    17    1
32    17    18    2
33    19    20    ar
34    19    38    1
35    20    39    1
36    21    26    ar
37    21    22    ar
38    22    23    ar
39    22    40    1
40    23    24    ar
41    23    41    1
42    24    25    ar
43    24    42    1
44    25    26    ar
45    25    43    1
@<TRIPOS>SUBSTRUCTURE
1   ZINC000000968328 1     RESIDUE    1   A     ZIN   1
