@<TRIPOS>MOLECULE
ZINC000014806879
  29   31    0    0    0
SMALL
USER_CHARGES
NO_NAME
@<TRIPOS>ATOM
    1 C1       -0.0173     1.4248     0.0099 C.3    1 <0>       0.0300
    2 O2        0.0021    -0.0041     0.0020 O.3    1 <0>      -0.3200
    3 C3        0.6262    -0.6187     1.0421 C.ar   1 <0>       0.1000
    4 C4        1.2030     0.1397     2.0525 C.ar   1 <0>      -0.1700
    5 C5        1.8397    -0.4722     3.1131 C.ar   1 <0>      -0.1000
    6 C6        1.9097    -1.8589     3.1808 C.ar   1 <0>       0.1200
    7 N7        2.4811    -2.7117     4.1207 N.am   1 <0>      -0.6600
    8 C8        2.3097    -4.0004     3.7807 C.2    1 <0>       0.5400
    9 O9        2.7017    -4.9655     4.4119 O.2    1 <0>      -0.4400
   10 C10       1.5654    -4.0411     2.5134 C.2    1 <0>      -0.1600
   11 C11       1.1742    -5.1565     1.8075 C.2    1 <0>       0.0600
   12 C12       1.4990    -6.4916     2.3104 C.2    1 <0>      -0.0200
   13 C13       1.1783    -7.6927     1.7102 C.2    1 <0>       0.0000
   14 N14       1.6713    -8.6712     2.5149 N.pl3  1 <0>      -0.5700
   15 C15       2.2745    -8.0713     3.5745 C.2    1 <0>       0.1700
   16 N16       2.1777    -6.7797     3.4523 N.2    1 <0>      -0.4000
   17 C17       1.3269    -2.6228     2.1610 C.ar   1 <0>      -0.0700
   18 C18       0.6820    -2.0016     1.0972 C.ar   1 <0>      -0.1000
   19 H19       1.0053     1.8021     0.0021 H      1 <0>       0.0600
   20 H20      -0.5445     1.7859    -0.8732 H      1 <0>       0.1000
   21 H21      -0.5275     1.7763     0.9067 H      1 <0>       0.0600
   22 H22       1.1532     1.2176     2.0076 H      1 <0>       0.1400
   23 H23       2.2852     0.1281     3.8926 H      1 <0>       0.1300
   24 H24       2.9444    -2.4138     4.9191 H      1 <0>       0.4100
   25 H25       0.6275    -5.0460     0.8827 H      1 <0>       0.1500
   26 H26       0.6408    -7.8284     0.7833 H      1 <0>       0.1900
   27 H27       1.6042    -9.6265     2.3606 H      1 <0>       0.4200
   28 H28       2.7619    -8.5865     4.3890 H      1 <0>       0.2100
   29 H29       0.2295    -2.5944     0.3161 H      1 <0>       0.1400
@<TRIPOS>BOND
   1    1    2 1
   2    1   19 1
   3    1   20 1
   4    1   21 1
   5    2    3 1
   6    3   18 ar
   7    3    4 ar
   8    4    5 ar
   9    4   22 1
  10    5    6 ar
  11    5   23 1
  12    6   17 ar
  13    6    7 1
  14    7    8 am
  15    7   24 1
  16    8    9 2
  17    8   10 1
  18   10   11 2
  19   10   17 1
  20   11   12 1
  21   11   25 1
  22   12   16 1
  23   12   13 2
  24   13   14 1
  25   13   26 1
  26   14   15 1
  27   14   27 1
  28   15   16 2
  29   15   28 1
  30   17   18 ar
  31   18   29 1
