@<TRIPOS>MOLECULE
ZINC000023247659
62    66    1     0     0
SMALL
USER_CHARGES
@<TRIPOS>ATOM
1      C1     -0.0184    1.5028    0.0103 C.3      1 ZINC000023247659   -0.1200
2      C2      0.0021   -0.0041    0.0020 C.ar     1 ZINC000023247659   -0.1000
3      C3      0.0058   -0.6863   -1.1964 C.ar     1 ZINC000023247659   -0.0700
4      C4      0.0251   -2.0800   -1.2032 C.ar     1 ZINC000023247659   -0.0400
5      C5      0.0297   -2.8169   -2.4907 C.2      1 ZINC000023247659    0.1200
6      N6      0.0208   -2.1476   -3.6182 N.2      1 ZINC000023247659   -0.2000
7      N7      0.0242   -2.7058   -4.7722 N.am     1 ZINC000023247659   -0.4300
8      C8      0.0370   -4.0458   -4.9154 C.2      1 ZINC000023247659    0.4900
9      O9      0.0401   -4.5526   -6.0245 O.2      1 ZINC000023247659   -0.5300
10     C10     0.0478   -4.8834   -3.7095 C.2      1 ZINC000023247659   -0.1100
11     C11     0.0625   -6.3568   -3.7946 C.2      1 ZINC000023247659    0.3500
12     N12     0.0670   -7.1720   -2.7670 N.2      1 ZINC000023247659   -0.4800
13     C13     0.0805   -8.4545   -3.2034 C.ar     1 ZINC000023247659    0.0500
14     C14     0.0902   -9.6914   -2.5505 C.ar     1 ZINC000023247659   -0.0600
15     C15     0.1034  -10.8463   -3.2802 C.ar     1 ZINC000023247659   -0.1100
16     C16     0.1133  -12.1762   -2.5714 C.3      1 ZINC000023247659    0.1000
17     N17    -1.2684  -12.6212   -2.3460 N.3      1 ZINC000023247659   -0.5300
18     C18    -2.0930  -11.5284   -1.8112 C.3      1 ZINC000023247659    0.0200
19     C19    -3.5347  -12.0146   -1.6471 C.3      1 ZINC000023247659    0.0000
20     N20    -3.5628  -13.1645   -0.7336 N.4      1 ZINC000023247659   -0.3900
21     H21    -3.1856  -12.8919    0.1617 H        1 ZINC000023247659    0.4200
22     C22    -4.9490  -13.6198   -0.5625 C.3      1 ZINC000023247659   -0.0500
23     C23    -2.7550  -14.2563   -1.2930 C.3      1 ZINC000023247659    0.0000
24     C24    -1.3069  -13.7887   -1.4541 C.3      1 ZINC000023247659    0.0200
25     C25     0.1075  -10.8074   -4.6671 C.ar     1 ZINC000023247659   -0.0800
26     C26     0.0986   -9.5994   -5.3330 C.ar     1 ZINC000023247659   -0.1000
27     C27     0.0846   -8.4153   -4.6097 C.ar     1 ZINC000023247659    0.0600
28     N28     0.0676   -7.0789   -4.9585 N.pl3    1 ZINC000023247659   -0.5800
29     C29     0.0493   -4.2271   -2.4842 C.2      1 ZINC000023247659    0.0000
30     C30     0.0407   -2.7800    0.0021 C.ar     1 ZINC000023247659   -0.0900
31     C31     0.0369   -2.0923    1.1973 C.ar     1 ZINC000023247659   -0.1000
32     C32     0.0538   -2.8483    2.5008 C.3      1 ZINC000023247659   -0.1100
33     C33     0.0230   -0.7040    1.2009 C.ar     1 ZINC000023247659    0.1200
34     O34     0.0192   -0.0291    2.3801 O.3      1 ZINC000023247659   -0.4900
35     H35     1.0042    1.8801    0.0026 H        1 ZINC000023247659    0.0700
36     H36    -0.5455    1.8639   -0.8728 H        1 ZINC000023247659    0.0700
37     H37    -0.5286    1.8543    0.9071 H        1 ZINC000023247659    0.0800
38     H38    -0.0067   -0.1413   -2.1287 H        1 ZINC000023247659    0.1400
39     H39     0.0171   -2.1475   -5.5654 H        1 ZINC000023247659    0.4500
40     H40     0.0875   -9.7334   -1.4713 H        1 ZINC000023247659    0.1300
41     H41     0.6361  -12.9106   -3.1841 H        1 ZINC000023247659    0.1000
42     H42     0.6228  -12.0735   -1.6133 H        1 ZINC000023247659    0.0600
43     H43    -1.7015  -11.2179   -0.8425 H        1 ZINC000023247659    0.0600
44     H44    -2.0701  -10.6845   -2.5006 H        1 ZINC000023247659    0.1300
45     H45    -4.1451  -11.2099   -1.2371 H        1 ZINC000023247659    0.1300
46     H46    -3.9305  -12.3122   -2.6181 H        1 ZINC000023247659    0.1400
47     H47    -5.3568  -13.9138   -1.5296 H        1 ZINC000023247659    0.1200
48     H48    -4.9701  -14.4731    0.1154 H        1 ZINC000023247659    0.1200
49     H49    -5.5486  -12.8102   -0.1463 H        1 ZINC000023247659    0.1200
50     H50    -2.7873  -15.1135   -0.6205 H        1 ZINC000023247659    0.1400
51     H51    -3.1548  -14.5424   -2.2658 H        1 ZINC000023247659    0.1400
52     H52    -0.7103  -14.5939   -1.8831 H        1 ZINC000023247659    0.1200
53     H53    -0.9024  -13.5154   -0.4795 H        1 ZINC000023247659    0.0600
54     H54     0.1180  -11.7295   -5.2293 H        1 ZINC000023247659    0.1400
55     H55     0.1025   -9.5753   -6.4127 H        1 ZINC000023247659    0.1300
56     H56     0.0621   -6.7190   -5.8593 H        1 ZINC000023247659    0.4400
57     H57     0.0570   -4.7798   -1.5564 H        1 ZINC000023247659    0.1700
58     H58     0.0554   -3.8599   -0.0002 H        1 ZINC000023247659    0.1300
59     H59     1.0854   -3.0163    2.8101 H        1 ZINC000023247659    0.0700
60     H60    -0.4645   -2.2680    3.2642 H        1 ZINC000023247659    0.0800
61     H61    -0.4474   -3.8075    2.3710 H        1 ZINC000023247659    0.0700
62     H62     0.9015    0.1752    2.7191 H        1 ZINC000023247659    0.3900
@<TRIPOS>BOND
1     1     2     1
2     1     35    1
3     1     36    1
4     1     37    1
5     2     33    ar
6     2     3     ar
7     3     4     ar
8     3     38    1
9     4     5     1
10    4     30    ar
11    5     29    1
12    5     6     2
13    6     7     1
14    7     8     am
15    7     39    1
16    8     9     2
17    8     10    1
18    10    11    1
19    10    29    2
20    11    28    1
21    11    12    2
22    12    13    1
23    13    27    ar
24    13    14    ar
25    14    15    ar
26    14    40    1
27    15    16    1
28    15    25    ar
29    16    17    1
30    16    41    1
31    16    42    1
32    17    24    1
33    17    18    1
34    18    19    1
35    18    43    1
36    18    44    1
37    19    20    1
38    19    45    1
39    19    46    1
40    20    21    1
41    20    22    1
42    20    23    1
43    22    47    1
44    22    48    1
45    22    49    1
46    23    24    1
47    23    50    1
48    23    51    1
49    24    52    1
50    24    53    1
51    25    26    ar
52    25    54    1
53    26    27    ar
54    26    55    1
55    27    28    1
56    28    56    1
57    29    57    1
58    30    31    ar
59    30    58    1
60    31    32    1
61    31    33    ar
62    32    59    1
63    32    60    1
64    32    61    1
65    33    34    1
66    34    62    1
@<TRIPOS>SUBSTRUCTURE
1   ZINC000023247659 1     RESIDUE    1   A     ZIN   1
