@<TRIPOS>MOLECULE
ZINC000100004227
42    44    1     0     0
SMALL
USER_CHARGES
@<TRIPOS>ATOM
1      C1      0.1791    0.6653   -0.9831 C.3      1 ZINC000100004227   -0.1500
2      C2      0.1936   -0.8290   -0.6552 C.3      1 ZINC000100004227   -0.1200
3      C3      0.8658   -1.0469    0.7018 C.3      1 ZINC000100004227   -0.1100
4      C4      0.8803   -2.5413    1.0297 C.3      1 ZINC000100004227    0.0200
5      C5      1.5424   -2.7559    2.3663 C.2      1 ZINC000100004227   -0.4600
6      C6      0.8956   -2.8729    3.5883 C.2      1 ZINC000100004227    0.5000
7      O7     -0.4236   -2.8155    3.7870 O.3      1 ZINC000100004227   -0.6500
8      N8      1.8410   -3.0566    4.5473 N.pl3    1 ZINC000100004227   -0.3700
9      C9      1.6022   -3.2190    5.9156 C.ar     1 ZINC000100004227    0.1800
10     C10     2.3114   -2.4633    6.8403 C.ar     1 ZINC000100004227   -0.1300
11     C11     2.0731   -2.6261    8.1909 C.ar     1 ZINC000100004227   -0.1100
12     C12     1.1298   -3.5403    8.6229 C.ar     1 ZINC000100004227   -0.1400
13     C13     0.4220   -4.2942    7.7048 C.ar     1 ZINC000100004227   -0.1100
14     C14     0.6513   -4.1322    6.3526 C.ar     1 ZINC000100004227   -0.1100
15     N15     3.0963   -3.0557    3.9256 N.am     1 ZINC000100004227   -0.3700
16     C16     4.3296   -3.2170    4.5649 C.ar     1 ZINC000100004227    0.1800
17     C17     5.3715   -2.3379    4.2993 C.ar     1 ZINC000100004227   -0.1100
18     C18     6.5882   -2.5000    4.9324 C.ar     1 ZINC000100004227   -0.1000
19     C19     6.7697   -3.5363    5.8298 C.ar     1 ZINC000100004227   -0.1400
20     C20     5.7344   -4.4134    6.0965 C.ar     1 ZINC000100004227   -0.1000
21     C21     4.5134   -4.2534    5.4712 C.ar     1 ZINC000100004227   -0.1300
22     C22     2.9060   -2.8774    2.5917 C.2      1 ZINC000100004227    0.5000
23     O23     3.8635   -2.8199    1.6627 O.2      1 ZINC000100004227   -0.6500
24     H24     1.2023    1.0391   -1.0203 H        1 ZINC000100004227    0.0500
25     H25    -0.2998    0.8206   -1.9499 H        1 ZINC000100004227    0.0400
26     H26    -0.3756    1.2010   -0.2127 H        1 ZINC000100004227    0.0500
27     H27    -0.8297   -1.2028   -0.6181 H        1 ZINC000100004227    0.0600
28     H28     0.7483   -1.3647   -1.4256 H        1 ZINC000100004227    0.0600
29     H29     1.8890   -0.6732    0.6646 H        1 ZINC000100004227    0.0500
30     H30     0.3111   -0.5113    1.4722 H        1 ZINC000100004227    0.0500
31     H31    -0.1430   -2.9151    1.0669 H        1 ZINC000100004227    0.0500
32     H32     1.4350   -3.0769    0.2593 H        1 ZINC000100004227    0.0500
33     H33     3.0485   -1.7494    6.5036 H        1 ZINC000100004227    0.1200
34     H34     2.6245   -2.0391    8.9105 H        1 ZINC000100004227    0.1200
35     H35     0.9456   -3.6660    9.6796 H        1 ZINC000100004227    0.1200
36     H36    -0.3141   -5.0074    8.0454 H        1 ZINC000100004227    0.1200
37     H37     0.0982   -4.7213    5.6360 H        1 ZINC000100004227    0.1300
38     H38     5.2305   -1.5285    3.5983 H        1 ZINC000100004227    0.1300
39     H39     7.3989   -1.8169    4.7260 H        1 ZINC000100004227    0.1200
40     H40     7.7222   -3.6611    6.3233 H        1 ZINC000100004227    0.1200
41     H41     5.8794   -5.2217    6.7979 H        1 ZINC000100004227    0.1200
42     H42     3.7052   -4.9387    5.6799 H        1 ZINC000100004227    0.1200
@<TRIPOS>BOND
1     1     2     1
2     1     24    1
3     1     25    1
4     1     26    1
5     2     3     1
6     2     27    1
7     2     28    1
8     3     4     1
9     3     29    1
10    3     30    1
11    4     5     1
12    4     31    1
13    4     32    1
14    5     22    1
15    5     6     2
16    6     7     1
17    6     8     1
18    8     9     1
19    8     15    1
20    9     14    ar
21    9     10    ar
22    10    11    ar
23    10    33    1
24    11    12    ar
25    11    34    1
26    12    13    ar
27    12    35    1
28    13    14    ar
29    13    36    1
30    14    37    1
31    15    16    1
32    15    22    am
33    16    21    ar
34    16    17    ar
35    17    18    ar
36    17    38    1
37    18    19    ar
38    18    39    1
39    19    20    ar
40    19    40    1
41    20    21    ar
42    20    41    1
43    21    42    1
44    22    23    2
@<TRIPOS>SUBSTRUCTURE
1   ZINC000100004227 1     RESIDUE    1   A     ZIN   1
