@<TRIPOS>MOLECULE
ZINC000005115722
43    44    1     0     0
SMALL
USER_CHARGES
@<TRIPOS>ATOM
1      C1     -0.0173    1.4248    0.0099 C.3      1 ZINC000005115722    0.0200
2      O2      0.0021   -0.0041    0.0020 O.3      1 ZINC000005115722   -0.3100
3      C3      0.6062   -0.6075   -1.0564 C.ar     1 ZINC000005115722    0.1000
4      C4      1.1699    0.1576   -2.0570 C.ar     1 ZINC000005115722   -0.1700
5      C5      1.7915   -0.4678   -3.1460 C.ar     1 ZINC000005115722   -0.0500
6      C6      2.3935    0.3399   -4.2135 C.2      1 ZINC000005115722    0.0000
7      C7      2.9943   -0.2673   -5.2661 C.2      1 ZINC000005115722   -0.2400
8      C8      3.5717    0.5074   -6.2900 C.2      1 ZINC000005115722    0.3700
9      O9      3.5315    1.7200   -6.2303 O.2      1 ZINC000005115722   -0.4300
10     C10     4.2396   -0.1676   -7.4602 C.3      1 ZINC000005115722   -0.2200
11     C11     4.7716    0.8776   -8.4065 C.2      1 ZINC000005115722    0.3800
12     O12     4.6227    2.0567   -8.1551 O.2      1 ZINC000005115722   -0.4300
13     C13     5.4410    0.4876   -9.5820 C.2      1 ZINC000005115722   -0.2500
14     C14     5.9195    1.4278  -10.4332 C.2      1 ZINC000005115722    0.0000
15     C15     6.6175    1.0212  -11.6588 C.ar     1 ZINC000005115722   -0.1000
16     C16     6.7855   -0.3379  -11.9541 C.ar     1 ZINC000005115722   -0.0800
17     C17     7.4403   -0.7135  -13.1047 C.ar     1 ZINC000005115722   -0.1500
18     C18     7.9352    0.2533  -13.9733 C.ar     1 ZINC000005115722    0.1200
19     O19     8.5805   -0.1227  -15.1064 O.3      1 ZINC000005115722   -0.5000
20     C20     7.7708    1.6038  -13.6853 C.ar     1 ZINC000005115722   -0.1500
21     C21     7.1130    1.9907  -12.5402 C.ar     1 ZINC000005115722   -0.0700
22     C22     1.8369   -1.8658   -3.2124 C.ar     1 ZINC000005115722   -0.1200
23     C23     1.2716   -2.6210   -2.2089 C.ar     1 ZINC000005115722   -0.1100
24     C24     0.6608   -1.9999   -1.1274 C.ar     1 ZINC000005115722    0.0900
25     O25     0.1056   -2.7501   -0.1411 O.3      1 ZINC000005115722   -0.4800
26     H26     1.0053    1.8021    0.0021 H        1 ZINC000005115722    0.0600
27     H27    -0.5445    1.7859   -0.8732 H        1 ZINC000005115722    0.0600
28     H28    -0.5275    1.7763    0.9067 H        1 ZINC000005115722    0.1000
29     H29     1.1318    1.2355   -2.0011 H        1 ZINC000005115722    0.1400
30     H30     2.3577    1.4180   -4.1604 H        1 ZINC000005115722    0.1400
31     H31     3.0300   -1.3454   -5.3192 H        1 ZINC000005115722    0.1400
32     H32     5.0627   -0.7858   -7.1017 H        1 ZINC000005115722    0.1300
33     H33     3.5149   -0.7938   -7.9806 H        1 ZINC000005115722    0.1300
34     H34     5.5734   -0.5607   -9.8055 H        1 ZINC000005115722    0.1300
35     H35     5.7872    2.4761  -10.2096 H        1 ZINC000005115722    0.1400
36     H36     6.4022   -1.0895  -11.2799 H        1 ZINC000005115722    0.1300
37     H37     7.5703   -1.7609  -13.3334 H        1 ZINC000005115722    0.1300
38     H38     7.9999   -0.2315  -15.8720 H        1 ZINC000005115722    0.4000
39     H39     8.1572    2.3504  -14.3634 H        1 ZINC000005115722    0.1300
40     H40     6.9857    3.0398  -12.3177 H        1 ZINC000005115722    0.1300
41     H41     2.3148   -2.3516   -4.0503 H        1 ZINC000005115722    0.1400
42     H42     1.3072   -3.6992   -2.2611 H        1 ZINC000005115722    0.1400
43     H43     0.7143   -2.9664    0.5786 H        1 ZINC000005115722    0.3900
@<TRIPOS>BOND
1     1     2     1
2     1     26    1
3     1     27    1
4     1     28    1
5     2     3     1
6     3     24    ar
7     3     4     ar
8     4     5     ar
9     4     29    1
10    5     6     1
11    5     22    ar
12    6     7     2
13    6     30    1
14    7     8     1
15    7     31    1
16    8     9     2
17    8     10    1
18    10    11    1
19    10    32    1
20    10    33    1
21    11    12    2
22    11    13    1
23    13    14    2
24    13    34    1
25    14    15    1
26    14    35    1
27    15    21    ar
28    15    16    ar
29    16    17    ar
30    16    36    1
31    17    18    ar
32    17    37    1
33    18    19    1
34    18    20    ar
35    19    38    1
36    20    21    ar
37    20    39    1
38    21    40    1
39    22    23    ar
40    22    41    1
41    23    24    ar
42    23    42    1
43    24    25    1
44    25    43    1
@<TRIPOS>SUBSTRUCTURE
1   ZINC000005115722 1     RESIDUE    1   A     ZIN   1
