@<TRIPOS>MOLECULE
ZINC000214463354
64    69    1     0     0
SMALL
USER_CHARGES
@<TRIPOS>ATOM
1      C1     -0.2912    1.3039   -0.0717 C.3      1 ZINC000214463354   -0.1300
2      C2     -0.2493   -0.1985    0.0376 C.ar     1 ZINC000214463354    0.2200
3      N3     -0.4546   -0.9547   -1.0314 N.ar     1 ZINC000214463354   -0.5500
4      C4     -0.4187   -2.2758   -0.9495 C.ar     1 ZINC000214463354    0.5800
5      N5     -0.6574   -3.0298   -2.0878 N.pl3    1 ZINC000214463354   -0.6100
6      C6     -0.9336   -2.3898   -3.3111 C.2      1 ZINC000214463354    0.0500
7      C7     -1.1896   -3.0036   -4.4943 C.2      1 ZINC000214463354   -0.0100
8      N8     -1.4034   -2.0333   -5.4216 N.pl3    1 ZINC000214463354   -0.3900
9      C9     -1.7151   -2.2468   -6.8370 C.3      1 ZINC000214463354    0.1700
10     C10    -0.9768   -3.4897   -7.3422 C.3      1 ZINC000214463354   -0.1600
11     C11    -1.3685   -3.7526   -8.7978 C.3      1 ZINC000214463354    0.0000
12     N12    -2.8171   -3.9724   -8.8864 N.4      1 ZINC000214463354   -0.5100
13     H13    -3.0645   -4.1981   -9.8382 H        1 ZINC000214463354    0.4400
14     H14    -3.0778   -4.7370   -8.2818 H        1 ZINC000214463354    0.4300
15     C15    -3.5313   -2.7590   -8.4714 C.3      1 ZINC000214463354    0.0000
16     C16    -3.2227   -2.4579   -7.0032 C.3      1 ZINC000214463354   -0.1600
17     N17    -1.2736   -0.7930   -4.7838 N.2      1 ZINC000214463354   -0.2800
18     C18    -0.9991   -1.0049   -3.5221 C.2      1 ZINC000214463354    0.0600
19     N19    -0.1600   -2.8954    0.1931 N.ar     1 ZINC000214463354   -0.5600
20     C20     0.0646   -2.2010    1.3038 C.ar     1 ZINC000214463354    0.4600
21     C21     0.0105   -0.8073    1.2584 C.ar     1 ZINC000214463354   -0.0100
22     N22     0.1559   -0.0266    2.4032 N.am     1 ZINC000214463354   -0.5300
23     C23    -0.7273    1.1363    2.5209 C.3      1 ZINC000214463354    0.0600
24     C24     1.0084   -0.2264    3.3957 C.2      1 ZINC000214463354    0.5700
25     O25     0.9961    0.5781    4.3073 O.2      1 ZINC000214463354   -0.5200
26     C26     1.9679   -1.3346    3.4933 C.ar     1 ZINC000214463354   -0.1500
27     C27     1.6119   -2.6382    3.0842 C.ar     1 ZINC000214463354    0.1900
28     C28     2.4824   -3.6804    3.2352 C.ar     1 ZINC000214463354   -0.1200
29     C29     3.7650   -3.4565    3.7605 C.ar     1 ZINC000214463354   -0.0200
30     C30     4.6770   -4.5134    3.9245 C.ar     1 ZINC000214463354   -0.1100
31     C31     5.9220   -4.2606    4.4137 C.ar     1 ZINC000214463354   -0.1000
32     C32     6.3080   -2.9669    4.7607 C.ar     1 ZINC000214463354   -0.1200
33     C33     5.4490   -1.9200    4.6267 C.ar     1 ZINC000214463354   -0.0900
34     C34     4.1519   -2.1421    4.1297 C.ar     1 ZINC000214463354   -0.0700
35     C35     3.2361   -1.0892    4.0017 C.ar     1 ZINC000214463354   -0.0200
36     N36     0.3805   -2.8635    2.4803 N.pl3    1 ZINC000214463354   -0.6000
37     C37    -0.5822   -3.7891    3.0826 C.3      1 ZINC000214463354    0.1100
38     H38     0.6585    1.7193    0.2654 H        1 ZINC000214463354    0.0900
39     H39    -0.4640    1.5880   -1.1097 H        1 ZINC000214463354    0.0900
40     H40    -1.0983    1.6911    0.5502 H        1 ZINC000214463354    0.1000
41     H41    -0.6341   -3.9984   -2.0416 H        1 ZINC000214463354    0.4300
42     H42    -1.2179   -4.0692   -4.6675 H        1 ZINC000214463354    0.1700
43     H43    -1.4031   -1.3764   -7.4142 H        1 ZINC000214463354    0.1200
44     H44     0.0989   -3.3250   -7.2788 H        1 ZINC000214463354    0.1200
45     H45    -1.2506   -4.3494   -6.7306 H        1 ZINC000214463354    0.1000
46     H46    -1.0940   -2.8925   -9.4085 H        1 ZINC000214463354    0.1400
47     H47    -0.8445   -4.6368   -9.1607 H        1 ZINC000214463354    0.1400
48     H48    -3.2107   -1.9201   -9.0890 H        1 ZINC000214463354    0.1400
49     H49    -4.6039   -2.9097   -8.5933 H        1 ZINC000214463354    0.1400
50     H50    -3.5432   -3.2962   -6.3846 H        1 ZINC000214463354    0.1000
51     H51    -3.7525   -1.5557   -6.6975 H        1 ZINC000214463354    0.1200
52     H52    -0.8420   -0.2431   -2.7728 H        1 ZINC000214463354    0.2200
53     H53    -1.6493    0.9495    1.9704 H        1 ZINC000214463354    0.0800
54     H54    -0.9602    1.3109    3.5713 H        1 ZINC000214463354    0.0900
55     H55    -0.2293    2.0139    2.1085 H        1 ZINC000214463354    0.0800
56     H56     2.1832   -4.6782    2.9503 H        1 ZINC000214463354    0.1400
57     H57     4.3912   -5.5217    3.6639 H        1 ZINC000214463354    0.1300
58     H58     6.6211   -5.0747    4.5350 H        1 ZINC000214463354    0.1300
59     H59     7.3034   -2.7930    5.1418 H        1 ZINC000214463354    0.1300
60     H60     5.7618   -0.9232    4.9004 H        1 ZINC000214463354    0.1300
61     H61     3.5160   -0.0893    4.2985 H        1 ZINC000214463354    0.1400
62     H62    -1.2274   -3.2446    3.7720 H        1 ZINC000214463354    0.0500
63     H63    -1.1888   -4.2432    2.2991 H        1 ZINC000214463354    0.0700
64     H64    -0.0466   -4.5683    3.6249 H        1 ZINC000214463354    0.0800
@<TRIPOS>BOND
1     1     2     1
2     1     38    1
3     1     39    1
4     1     40    1
5     2     21    ar
6     2     3     ar
7     3     4     ar
8     4     5     1
9     4     19    ar
10    5     6     1
11    5     41    1
12    6     18    1
13    6     7     2
14    7     8     1
15    7     42    1
16    8     9     1
17    8     17    1
18    9     16    1
19    9     10    1
20    9     43    1
21    10    11    1
22    10    44    1
23    10    45    1
24    11    12    1
25    11    46    1
26    11    47    1
27    12    13    1
28    12    14    1
29    12    15    1
30    15    16    1
31    15    48    1
32    15    49    1
33    16    50    1
34    16    51    1
35    17    18    2
36    18    52    1
37    19    20    ar
38    20    36    1
39    20    21    ar
40    21    22    1
41    22    23    1
42    22    24    am
43    23    53    1
44    23    54    1
45    23    55    1
46    24    25    2
47    24    26    1
48    26    35    ar
49    26    27    ar
50    27    28    ar
51    27    36    1
52    28    29    ar
53    28    56    1
54    29    34    ar
55    29    30    ar
56    30    31    ar
57    30    57    1
58    31    32    ar
59    31    58    1
60    32    33    ar
61    32    59    1
62    33    34    ar
63    33    60    1
64    34    35    ar
65    35    61    1
66    36    37    1
67    37    62    1
68    37    63    1
69    37    64    1
@<TRIPOS>SUBSTRUCTURE
1   ZINC000214463354 1     RESIDUE    1   A     ZIN   1
