@<TRIPOS>MOLECULE
ZINC000003591058
  39   42    0    0    0
SMALL
USER_CHARGES
NO_NAME
@<TRIPOS>ATOM
    1 O1       -0.1623     0.2413    -1.1019 O.2    1 <0>      -0.5000
    2 C2       -0.0947     1.3320    -0.5690 C.2    1 <0>       0.7000
    3 N3        1.0691     2.0117    -0.5704 N.am   1 <0>      -0.6700
    4 C4        2.2204     1.4213    -1.0889 C.ar   1 <0>       0.3700
    5 C5        3.4379     2.0850    -0.9925 C.ar   1 <0>      -0.2100
    6 C6        4.5732     1.4875    -1.5114 C.ar   1 <0>      -0.0500
    7 C7        4.4507     0.2418    -2.1112 C.ar   1 <0>      -0.2000
    8 C8        3.2092    -0.3601    -2.1721 C.ar   1 <0>       0.1300
    9 N9        2.1452     0.2312    -1.6639 N.ar   1 <0>      -0.4800
   10 N10      -1.1850     1.8639     0.0182 N.am   1 <0>      -0.6800
   11 C11      -2.3621     1.1132     0.1188 C.ar   1 <0>       0.1900
   12 C12      -2.3047    -0.2762     0.1110 C.ar   1 <0>      -0.1000
   13 C13      -3.4663    -1.0193     0.2126 C.ar   1 <0>      -0.1000
   14 C14      -4.6899    -0.3899     0.3172 C.ar   1 <0>      -0.0600
   15 C15      -4.7613     1.0029     0.3156 C.ar   1 <0>      -0.1300
   16 C16      -3.5825     1.7517     0.2317 C.ar   1 <0>      -0.1200
   17 C17      -3.9995     3.1942     0.2921 C.3    1 <0>       0.1300
   18 H18      -3.7100     3.6531     1.2374 H      1 <0>       0.1100
   19 C19      -3.4689     3.9961    -0.9077 C.3    1 <0>      -0.1200
   20 C20      -4.6451     4.9136    -1.3143 C.3    1 <0>      -0.1400
   21 C21      -5.7863     4.5533    -0.3333 C.3    1 <0>       0.1400
   22 N22      -5.4739     3.1813     0.1206 N.am   1 <0>      -0.6300
   23 C23      -5.8965     1.9461     0.4094 C.2    1 <0>       0.6000
   24 O24      -7.0412     1.6424     0.6833 O.2    1 <0>      -0.5100
   25 H25       1.1055     2.9118    -0.2106 H      1 <0>       0.4200
   26 H26       3.4971     3.0540    -0.5193 H      1 <0>       0.1400
   27 H27       5.5328     1.9795    -1.4513 H      1 <0>       0.1400
   28 H28       5.3172    -0.2515    -2.5264 H      1 <0>       0.1400
   29 H29       3.1089    -1.3293    -2.6379 H      1 <0>       0.1600
   30 H30      -1.1540     2.7669     0.3710 H      1 <0>       0.4100
   31 H31      -1.3511    -0.7758     0.0250 H      1 <0>       0.1600
   32 H32      -3.4157    -2.0981     0.2096 H      1 <0>       0.1400
   33 H33      -5.5930    -0.9764     0.4001 H      1 <0>       0.1400
   34 H34      -2.6053     4.5928    -0.6140 H      1 <0>       0.0800
   35 H35      -3.2083     3.3264    -1.7273 H      1 <0>       0.0800
   36 H36      -4.3653     5.9612    -1.2025 H      1 <0>       0.0900
   37 H37      -4.9486     4.7088    -2.3410 H      1 <0>       0.0800
   38 H38      -5.7858     5.2335     0.5184 H      1 <0>       0.0800
   39 H39      -6.7495     4.5797    -0.8428 H      1 <0>       0.0900
@<TRIPOS>BOND
   1    1    2 2
   2    2    3 am
   3    2   10 am
   4    3    4 1
   5    3   25 1
   6    4    9 ar
   7    4    5 ar
   8    5    6 ar
   9    5   26 1
  10    6    7 ar
  11    6   27 1
  12    7    8 ar
  13    7   28 1
  14    8    9 ar
  15    8   29 1
  16   10   11 1
  17   10   30 1
  18   11   16 ar
  19   11   12 ar
  20   12   13 ar
  21   12   31 1
  22   13   14 ar
  23   13   32 1
  24   14   15 ar
  25   14   33 1
  26   15   23 1
  27   15   16 ar
  28   16   17 1
  29   17   18 1
  30   17   22 1
  31   17   19 1
  32   19   20 1
  33   19   34 1
  34   19   35 1
  35   20   21 1
  36   20   36 1
  37   20   37 1
  38   21   22 1
  39   21   38 1
  40   21   39 1
  41   22   23 am
  42   23   24 2
