@<TRIPOS>MOLECULE
ZINC000100243669
62    65    1     0     0
SMALL
USER_CHARGES
@<TRIPOS>ATOM
1      C1     -0.5691    1.9634    0.8593 C.3      1 ZINC000100243669   -0.1200
2      C2     -0.3904    0.4869    0.6161 C.2      1 ZINC000100243669    0.2500
3      C3     -1.4685   -0.2847    0.3944 C.2      1 ZINC000100243669   -0.2600
4      C4     -2.7541    0.3044    0.4012 C.2      1 ZINC000100243669    0.5300
5      O5     -2.8754    1.4977    0.6064 O.2      1 ZINC000100243669   -0.5200
6      O6     -3.8463   -0.4568    0.1803 O.3      1 ZINC000100243669   -0.3400
7      C7     -5.1130    0.2044    0.2016 C.3      1 ZINC000100243669    0.1100
8      C8     -6.2072   -0.7975   -0.0629 C.ar     1 ZINC000100243669   -0.0500
9      C9     -6.6285   -1.0634   -1.3568 C.ar     1 ZINC000100243669   -0.1500
10     C10    -7.6347   -1.9886   -1.5606 C.ar     1 ZINC000100243669    0.1000
11     N11    -8.1921   -2.6144   -0.5424 N.ar     1 ZINC000100243669   -0.4800
12     C12    -7.8168   -2.3866    0.7011 C.ar     1 ZINC000100243669    0.1000
13     C13    -6.8125   -1.4795    0.9815 C.ar     1 ZINC000100243669   -0.1500
14     C14    -1.3372   -1.7594    0.1388 C.3      1 ZINC000100243669    0.1000
15     C15    -1.5367   -2.0281   -1.3305 C.2      1 ZINC000100243669   -0.1200
16     C16    -2.3590   -2.9781   -1.6381 C.2      1 ZINC000100243669   -0.1100
17     C17    -3.0295   -3.6868   -0.4896 C.3      1 ZINC000100243669   -0.1000
18     S18    -2.7760   -3.5275   -3.2477 S.3      1 ZINC000100243669   -0.1000
19     C19    -2.2007   -2.1934   -4.3305 C.3      1 ZINC000100243669   -0.1200
20     C20    -0.7276   -1.9081   -4.0177 C.3      1 ZINC000100243669   -0.1200
21     S21    -0.6361   -1.0165   -2.4406 S.3      1 ZINC000100243669   -0.1000
22     C22     0.0206   -2.2521    0.5519 C.2      1 ZINC000100243669   -0.2300
23     C23     0.2320   -3.6405    0.7172 C.2      1 ZINC000100243669    0.5400
24     O24    -0.2631   -4.2229    1.6640 O.2      1 ZINC000100243669   -0.5000
25     O25     0.9828   -4.3196   -0.1752 O.3      1 ZINC000100243669   -0.3400
26     C26     1.1545   -5.7197    0.0537 C.3      1 ZINC000100243669    0.1000
27     C27     2.0150   -6.3051   -1.0362 C.ar     1 ZINC000100243669   -0.0500
28     C28     1.4469   -6.8009   -2.1997 C.ar     1 ZINC000100243669   -0.1500
29     C29     2.2679   -7.3303   -3.1774 C.ar     1 ZINC000100243669    0.1000
30     N30     3.5757   -7.3672   -3.0128 N.ar     1 ZINC000100243669   -0.4800
31     C31     4.1504   -6.9050   -1.9196 C.ar     1 ZINC000100243669    0.1000
32     C32     3.3941   -6.3554   -0.9017 C.ar     1 ZINC000100243669   -0.1500
33     C33     1.0391   -1.4016    0.7674 C.2      1 ZINC000100243669    0.2000
34     C34     2.3868   -1.9415    1.1715 C.3      1 ZINC000100243669   -0.1300
35     N35     0.8677   -0.0509    0.6183 N.pl3    1 ZINC000100243669   -0.6200
36     H36     0.4053    2.4267    1.0139 H        1 ZINC000100243669    0.0600
37     H37    -1.0545    2.4177   -0.0045 H        1 ZINC000100243669    0.1000
38     H38    -1.1875    2.1136    1.7442 H        1 ZINC000100243669    0.1000
39     H39    -5.2676    0.6619    1.1787 H        1 ZINC000100243669    0.0800
40     H40    -5.1331    0.9760   -0.5681 H        1 ZINC000100243669    0.0800
41     H41    -6.1763   -0.5537   -2.1947 H        1 ZINC000100243669    0.1400
42     H42    -7.9685   -2.2014   -2.5654 H        1 ZINC000100243669    0.1600
43     H43    -8.2969   -2.9182    1.5093 H        1 ZINC000100243669    0.1600
44     H44    -6.5093   -1.2976    2.0020 H        1 ZINC000100243669    0.1400
45     H45    -2.0997   -2.2915    0.7077 H        1 ZINC000100243669    0.1100
46     H46    -3.9035   -3.1181   -0.1722 H        1 ZINC000100243669    0.0800
47     H47    -3.3396   -4.6821   -0.8081 H        1 ZINC000100243669    0.0600
48     H48    -2.3303   -3.7729    0.3422 H        1 ZINC000100243669    0.0800
49     H49    -2.3008   -2.4989   -5.3720 H        1 ZINC000100243669    0.1200
50     H50    -2.7930   -1.2961   -4.1516 H        1 ZINC000100243669    0.1000
51     H51    -0.1808   -2.8481   -3.9431 H        1 ZINC000100243669    0.1000
52     H52    -0.2979   -1.2942   -4.8093 H        1 ZINC000100243669    0.1200
53     H53     1.6364   -5.8736    1.0192 H        1 ZINC000100243669    0.0800
54     H54     0.1812   -6.2103    0.0511 H        1 ZINC000100243669    0.0800
55     H55     0.3764   -6.7741   -2.3401 H        1 ZINC000100243669    0.1400
56     H56     1.8332   -7.7186   -4.0867 H        1 ZINC000100243669    0.1600
57     H57     5.2247   -6.9526   -1.8204 H        1 ZINC000100243669    0.1600
58     H58     3.8706   -5.9781   -0.0090 H        1 ZINC000100243669    0.1400
59     H59     2.9455   -2.2280    0.2805 H        1 ZINC000100243669    0.1000
60     H60     2.9378   -1.1737    1.7146 H        1 ZINC000100243669    0.0800
61     H61     2.2518   -2.8133    1.8117 H        1 ZINC000100243669    0.0800
62     H62     1.6413    0.5262    0.5217 H        1 ZINC000100243669    0.4200
@<TRIPOS>BOND
1     1     2     1
2     1     36    1
3     1     37    1
4     1     38    1
5     2     35    1
6     2     3     2
7     3     4     1
8     3     14    1
9     4     5     2
10    4     6     1
11    6     7     1
12    7     8     1
13    7     39    1
14    7     40    1
15    8     13    ar
16    8     9     ar
17    9     10    ar
18    9     41    1
19    10    11    ar
20    10    42    1
21    11    12    ar
22    12    13    ar
23    12    43    1
24    13    44    1
25    14    15    1
26    14    22    1
27    14    45    1
28    15    21    1
29    15    16    2
30    16    17    1
31    16    18    1
32    17    46    1
33    17    47    1
34    17    48    1
35    18    19    1
36    19    20    1
37    19    49    1
38    19    50    1
39    20    21    1
40    20    51    1
41    20    52    1
42    22    23    1
43    22    33    2
44    23    24    2
45    23    25    1
46    25    26    1
47    26    27    1
48    26    53    1
49    26    54    1
50    27    32    ar
51    27    28    ar
52    28    29    ar
53    28    55    1
54    29    30    ar
55    29    56    1
56    30    31    ar
57    31    32    ar
58    31    57    1
59    32    58    1
60    33    34    1
61    33    35    1
62    34    59    1
63    34    60    1
64    34    61    1
65    35    62    1
@<TRIPOS>SUBSTRUCTURE
1   ZINC000100243669 1     RESIDUE    1   A     ZIN   1
