@<TRIPOS>MOLECULE
ZINC000018150621
33    35    1     0     0
SMALL
USER_CHARGES
@<TRIPOS>ATOM
1      N1     -0.0168    1.3844    0.0097 N.pl3    1 ZINC000018150621   -0.8300
2      C2      0.0021   -0.0041    0.0020 C.ar     1 ZINC000018150621    0.4800
3      C3     -1.2032   -0.7224    0.0038 C.ar     1 ZINC000018150621   -0.0600
4      N4     -2.5145   -0.3788    0.0123 N.2      1 ZINC000018150621   -0.4700
5      C5     -3.2472   -1.4543    0.0096 C.2      1 ZINC000018150621    0.2600
6      N6     -2.4518   -2.5607   -0.0007 N.pl3    1 ZINC000018150621   -0.4600
7      C7     -2.9033   -3.9544   -0.0061 C.3      1 ZINC000018150621    0.1700
8      H8     -2.0479   -4.6297   -0.0272 H        1 ZINC000018150621    0.1200
9      C9     -3.8058   -4.2108   -1.1905 C.2      1 ZINC000018150621   -0.1400
10     C10    -5.0598   -4.2353   -0.8292 C.2      1 ZINC000018150621   -0.1500
11     C11    -6.2136   -4.4688   -1.7701 C.3      1 ZINC000018150621    0.1200
12     O12    -5.7162   -4.6545   -3.0969 O.3      1 ZINC000018150621   -0.5700
13     C13    -5.2027   -3.9993    0.6564 C.3      1 ZINC000018150621    0.1000
14     H14    -5.5221   -2.9751    0.8492 H        1 ZINC000018150621    0.0800
15     O15    -6.1343   -4.9247    1.2201 O.3      1 ZINC000018150621   -0.5500
16     C16    -3.7846   -4.2400    1.2320 C.3      1 ZINC000018150621    0.1000
17     H17    -3.6682   -5.2705    1.5675 H        1 ZINC000018150621    0.1000
18     O18    -3.4982   -3.3236    2.2904 O.3      1 ZINC000018150621   -0.5400
19     C19    -1.1478   -2.1270   -0.0046 C.ar     1 ZINC000018150621    0.1300
20     C20     0.0999   -2.7463   -0.0143 C.ar     1 ZINC000018150621   -0.2300
21     C21     1.2258   -1.9717   -0.0154 C.ar     1 ZINC000018150621    0.1600
22     N22     1.1560   -0.6500   -0.0125 N.ar     1 ZINC000018150621   -0.5600
23     H23     0.8166    1.8808    0.0044 H        1 ZINC000018150621    0.4100
24     H24    -0.8633    1.8580    0.0162 H        1 ZINC000018150621    0.4100
25     H25    -4.3271   -1.4679    0.0154 H        1 ZINC000018150621    0.2000
26     H26    -3.4588   -4.3546   -2.2031 H        1 ZINC000018150621    0.1500
27     H27    -6.7614   -5.3585   -1.4596 H        1 ZINC000018150621    0.0700
28     H28    -6.8797   -3.6062   -1.7493 H        1 ZINC000018150621    0.0600
29     H29    -6.4054   -4.8102   -3.7571 H        1 ZINC000018150621    0.3900
30     H30    -7.0285   -4.8515    0.8593 H        1 ZINC000018150621    0.3800
31     H31    -4.0946   -3.3987    3.0479 H        1 ZINC000018150621    0.3900
32     H32     0.1765   -3.8236   -0.0206 H        1 ZINC000018150621    0.1300
33     H33     2.1946   -2.4490   -0.0226 H        1 ZINC000018150621    0.1600
@<TRIPOS>BOND
1     1     2     1
2     1     23    1
3     1     24    1
4     2     22    ar
5     2     3     ar
6     3     19    ar
7     3     4     1
8     4     5     2
9     5     6     1
10    5     25    1
11    6     7     1
12    6     19    1
13    7     8     1
14    7     16    1
15    7     9     1
16    9     10    2
17    9     26    1
18    10    11    1
19    10    13    1
20    11    12    1
21    11    27    1
22    11    28    1
23    12    29    1
24    13    14    1
25    13    15    1
26    13    16    1
27    15    30    1
28    16    17    1
29    16    18    1
30    18    31    1
31    19    20    ar
32    20    21    ar
33    20    32    1
34    21    22    ar
35    21    33    1
@<TRIPOS>SUBSTRUCTURE
1   ZINC000018150621 1     RESIDUE    1   A     ZIN   1
