@<TRIPOS>MOLECULE
ZINC000088261628
53    56    1     0     0
SMALL
USER_CHARGES
@<TRIPOS>ATOM
1      N1     -0.1333    1.3273    0.2015 N.am     1 ZINC000088261628   -0.8400
2      C2     -0.1353   -0.0011   -0.0258 C.2      1 ZINC000088261628    0.5900
3      O3      0.7180   -0.4979   -0.7362 O.2      1 ZINC000088261628   -0.5500
4      C4     -1.1701   -0.8507    0.5855 C.ar     1 ZINC000088261628   -0.3500
5      C5     -2.2371   -0.2872    1.2932 C.ar     1 ZINC000088261628    0.2600
6      N6     -3.1452   -1.0835    1.8269 N.ar     1 ZINC000088261628   -0.6000
7      C7     -3.0599   -2.4023    1.7020 C.ar     1 ZINC000088261628    0.6100
8      N8     -4.0335   -3.1923    2.2771 N.pl3    1 ZINC000088261628   -0.7100
9      C9     -5.1395   -2.5735    3.0120 C.3      1 ZINC000088261628    0.1500
10     H10    -5.4101   -1.6312    2.5355 H        1 ZINC000088261628    0.1200
11     C11    -4.7079   -2.3093    4.4559 C.3      1 ZINC000088261628   -0.1300
12     C12    -5.8630   -1.6630    5.2233 C.3      1 ZINC000088261628   -0.1300
13     C13    -7.0698   -2.6034    5.2157 C.3      1 ZINC000088261628   -0.1200
14     C14    -7.5014   -2.8675    3.7718 C.3      1 ZINC000088261628   -0.1400
15     C15    -6.3464   -3.5139    3.0044 C.3      1 ZINC000088261628    0.0200
16     H16    -6.0758   -4.4561    3.4808 H        1 ZINC000088261628    0.1500
17     N17    -6.7608   -3.7675    1.6180 N.4      1 ZINC000088261628   -0.6400
18     H18    -7.0112   -2.8952    1.1769 H        1 ZINC000088261628    0.4400
19     H19    -5.9990   -4.1937    1.1119 H        1 ZINC000088261628    0.4300
20     H20    -7.5567   -4.3876    1.6130 H        1 ZINC000088261628    0.4400
21     N21    -2.0691   -2.9833    1.0417 N.ar     1 ZINC000088261628   -0.6100
22     C22    -1.1165   -2.2570    0.4689 C.ar     1 ZINC000088261628    0.5200
23     N23    -0.0863   -2.8661   -0.2184 N.pl3    1 ZINC000088261628   -0.6200
24     C24    -0.1105   -4.2471   -0.4345 C.ar     1 ZINC000088261628    0.1700
25     C25    -1.3204   -4.8974   -0.6425 C.ar     1 ZINC000088261628   -0.1100
26     C26    -1.3448   -6.2623   -0.8561 C.ar     1 ZINC000088261628   -0.0800
27     C27    -0.1672   -6.9844   -0.8635 C.ar     1 ZINC000088261628   -0.1200
28     C28     1.0459   -6.3401   -0.6561 C.ar     1 ZINC000088261628    0.1700
29     N29     2.2405   -7.0742   -0.6634 N.pl3    1 ZINC000088261628   -0.1100
30     N30     3.4086   -6.5701   -0.4760 N.2      1 ZINC000088261628   -0.2900
31     C31     4.3000   -7.5331   -0.5470 C.2      1 ZINC000088261628   -0.0100
32     C32     3.5794   -8.7035   -0.7991 C.2      1 ZINC000088261628   -0.0100
33     N33     2.3165   -8.3438   -0.8529 N.2      1 ZINC000088261628   -0.2900
34     C34     1.0748   -4.9694   -0.4471 C.ar     1 ZINC000088261628   -0.1300
35     H35     0.5487    1.8873   -0.2014 H        1 ZINC000088261628    0.4100
36     H36    -0.8161    1.7241    0.7647 H        1 ZINC000088261628    0.4000
37     H37    -2.3169    0.7844    1.4018 H        1 ZINC000088261628    0.1800
38     H38    -3.9858   -4.1577    2.1950 H        1 ZINC000088261628    0.4100
39     H39    -4.4373   -3.2516    4.9324 H        1 ZINC000088261628    0.0800
40     H40    -3.8481   -1.6394    4.4613 H        1 ZINC000088261628    0.0900
41     H41    -5.5555   -1.4748    6.2520 H        1 ZINC000088261628    0.0800
42     H42    -6.1335   -0.7207    4.7469 H        1 ZINC000088261628    0.0800
43     H43    -6.7992   -3.5457    5.6922 H        1 ZINC000088261628    0.0800
44     H44    -7.8927   -2.1429    5.7624 H        1 ZINC000088261628    0.0900
45     H45    -8.3612   -3.5375    3.7664 H        1 ZINC000088261628    0.1000
46     H46    -7.7720   -1.9253    3.2953 H        1 ZINC000088261628    0.0900
47     H47     0.6546   -2.3359   -0.5515 H        1 ZINC000088261628    0.4400
48     H48    -2.2428   -4.3356   -0.6369 H        1 ZINC000088261628    0.1400
49     H49    -2.2866   -6.7657   -1.0173 H        1 ZINC000088261628    0.1400
50     H50    -0.1896   -8.0512   -1.0304 H        1 ZINC000088261628    0.1500
51     H51     5.3700   -7.4393   -0.4338 H        1 ZINC000088261628    0.2100
52     H52     3.9780   -9.6998   -0.9208 H        1 ZINC000088261628    0.2100
53     H53     2.0167   -4.4663   -0.2856 H        1 ZINC000088261628    0.1500
@<TRIPOS>BOND
1     1     2     am
2     1     35    1
3     1     36    1
4     2     3     2
5     2     4     1
6     4     22    ar
7     4     5     ar
8     5     6     ar
9     5     37    1
10    6     7     ar
11    7     8     1
12    7     21    ar
13    8     9     1
14    8     38    1
15    9     10    1
16    9     15    1
17    9     11    1
18    11    12    1
19    11    39    1
20    11    40    1
21    12    13    1
22    12    41    1
23    12    42    1
24    13    14    1
25    13    43    1
26    13    44    1
27    14    15    1
28    14    45    1
29    14    46    1
30    15    16    1
31    15    17    1
32    17    18    1
33    17    19    1
34    17    20    1
35    21    22    ar
36    22    23    1
37    23    24    1
38    23    47    1
39    24    34    ar
40    24    25    ar
41    25    26    ar
42    25    48    1
43    26    27    ar
44    26    49    1
45    27    28    ar
46    27    50    1
47    28    29    1
48    28    34    ar
49    29    33    1
50    29    30    1
51    30    31    2
52    31    32    1
53    31    51    1
54    32    33    2
55    32    52    1
56    34    53    1
@<TRIPOS>SUBSTRUCTURE
1   ZINC000088261628 1     RESIDUE    1   A     ZIN   1
