@<TRIPOS>MOLECULE
ZINC000000166489
24    25    1     0     0
SMALL
USER_CHARGES
@<TRIPOS>ATOM
1      N1     -0.0169    1.3954    0.0097 N.pl3    1 ZINC000000166489   -0.8700
2      C2      0.0021   -0.0041    0.0020 C.ar     1 ZINC000000166489    0.1400
3      C3     -1.1898   -0.7260    0.0037 C.ar     1 ZINC000000166489   -0.1200
4      C4     -1.1227   -2.1081   -0.0046 C.ar     1 ZINC000000166489   -0.1300
5      C5      0.1210   -2.7257   -0.0143 C.ar     1 ZINC000000166489    0.2600
6      O6      0.1967   -4.0813   -0.0229 O.3      1 ZINC000000166489   -0.2400
7      C7      1.4307   -4.6515   -0.0323 C.ar     1 ZINC000000166489    0.1200
8      C8      2.0587   -4.9307   -1.2383 C.ar     1 ZINC000000166489   -0.0300
9      Cl9     1.2693   -4.5513   -2.7372 Cl       1 ZINC000000166489   -0.0400
10     C10     3.3137   -5.5107   -1.2446 C.ar     1 ZINC000000166489   -0.1000
11     C11     3.9432   -5.8127   -0.0512 C.ar     1 ZINC000000166489   -0.0900
12     C12     3.3202   -5.5358    1.1516 C.ar     1 ZINC000000166489   -0.1000
13     C13     2.0676   -4.9506    1.1643 C.ar     1 ZINC000000166489   -0.0300
14     Cl14    1.2864   -4.6028    2.6751 Cl       1 ZINC000000166489   -0.0400
15     N15     1.2326   -2.0093   -0.0156 N.ar     1 ZINC000000166489   -0.4800
16     C16     1.2077   -0.6903   -0.0132 C.ar     1 ZINC000000166489    0.0700
17     H17     0.8164    1.8918    0.0044 H        1 ZINC000000166489    0.4000
18     H18    -0.8634    1.8690    0.0163 H        1 ZINC000000166489    0.4000
19     H19    -2.1433   -0.2189    0.0116 H        1 ZINC000000166489    0.1400
20     H20    -2.0265   -2.6993   -0.0033 H        1 ZINC000000166489    0.1400
21     H21     3.8026   -5.7285   -2.1827 H        1 ZINC000000166489    0.1500
22     H22     4.9234   -6.2661   -0.0587 H        1 ZINC000000166489    0.1500
23     H23     3.8142   -5.7732    2.0822 H        1 ZINC000000166489    0.1500
24     H24     2.1362   -0.1387   -0.0143 H        1 ZINC000000166489    0.1600
@<TRIPOS>BOND
1     1     2     1
2     1     17    1
3     1     18    1
4     2     16    ar
5     2     3     ar
6     3     4     ar
7     3     19    1
8     4     5     ar
9     4     20    1
10    5     6     1
11    5     15    ar
12    6     7     1
13    7     13    ar
14    7     8     ar
15    8     9     1
16    8     10    ar
17    10    11    ar
18    10    21    1
19    11    12    ar
20    11    22    1
21    12    13    ar
22    12    23    1
23    13    14    1
24    15    16    ar
25    16    24    1
@<TRIPOS>SUBSTRUCTURE
1   ZINC000000166489 1     RESIDUE    1   A     ZIN   1
