@<TRIPOS>MOLECULE
ZINC000000005472
26    27    1     0     0
SMALL
USER_CHARGES
@<TRIPOS>ATOM
1      N1     -0.0166    1.3721    0.0096 N.pl3    1 ZINC000000005472   -0.8100
2      C2      0.0021   -0.0041    0.0020 C.2      1 ZINC000000005472    0.4900
3      N3     -1.1353   -0.6865    0.0037 N.2      1 ZINC000000005472   -0.5900
4      C4     -1.1301   -2.0182   -0.0035 C.2      1 ZINC000000005472    0.6200
5      O5     -2.1902   -2.6221   -0.0021 O.2      1 ZINC000000005472   -0.4400
6      N6      0.0246   -2.7090   -0.0127 N.am     1 ZINC000000005472   -0.5400
7      C7     -0.0024   -4.1737   -0.0210 C.3      1 ZINC000000005472    0.3100
8      H8      1.0182   -4.5405   -0.1303 H        1 ZINC000000005472    0.1300
9      C9     -0.5648   -4.6674    1.3336 C.3      1 ZINC000000005472   -0.1200
10     S10    -2.3179   -5.0023    0.8724 S.3      1 ZINC000000005472   -0.2100
11     C11    -1.8908   -5.4551   -0.8608 C.3      1 ZINC000000005472    0.1400
12     H12    -1.6119   -6.5066   -0.9283 H        1 ZINC000000005472    0.1100
13     C13    -3.0528   -5.1421   -1.8057 C.3      1 ZINC000000005472    0.0800
14     O14    -3.3682   -3.7505   -1.7281 O.3      1 ZINC000000005472   -0.5200
15     O15    -0.7633   -4.6080   -1.1352 O.3      1 ZINC000000005472   -0.3600
16     C16     1.2207   -2.0521   -0.0148 C.2      1 ZINC000000005472    0.1700
17     C17     1.2316   -0.6971   -0.0134 C.2      1 ZINC000000005472   -0.0900
18     F18     2.4009   -0.0203   -0.0155 F        1 ZINC000000005472   -0.1200
19     H19     0.8168    1.8684    0.0043 H        1 ZINC000000005472    0.4200
20     H20    -0.8631    1.8456    0.0162 H        1 ZINC000000005472    0.4200
21     H21    -0.0625   -5.5780    1.6602 H        1 ZINC000000005472    0.1200
22     H22    -0.4993   -3.8894    2.0943 H        1 ZINC000000005472    0.1200
23     H23    -2.7681   -5.3937   -2.8273 H        1 ZINC000000005472    0.0600
24     H24    -3.9245   -5.7289   -1.5163 H        1 ZINC000000005472    0.0600
25     H25    -4.0977   -3.4799   -2.3023 H        1 ZINC000000005472    0.3700
26     H26     2.1479   -2.6058   -0.0218 H        1 ZINC000000005472    0.1800
@<TRIPOS>BOND
1     1     2     1
2     1     19    1
3     1     20    1
4     2     17    1
5     2     3     2
6     3     4     1
7     4     5     2
8     4     6     am
9     6     7     1
10    6     16    1
11    7     8     1
12    7     15    1
13    7     9     1
14    9     10    1
15    9     21    1
16    9     22    1
17    10    11    1
18    11    12    1
19    11    13    1
20    11    15    1
21    13    14    1
22    13    23    1
23    13    24    1
24    14    25    1
25    16    17    2
26    16    26    1
27    17    18    1
@<TRIPOS>SUBSTRUCTURE
1   ZINC000000005472 1     RESIDUE    1   A     ZIN   1
