@<TRIPOS>MOLECULE
ZINC000299841323
81    85    1     0     0
SMALL
USER_CHARGES
@<TRIPOS>ATOM
1      C1     -0.0559    1.4332    0.1052 C.3      1 ZINC000299841323    0.0300
2      O2     -0.0331    0.0044    0.0914 O.3      1 ZINC000299841323   -0.3100
3      C3     -1.2348   -0.6322    0.0887 C.ar     1 ZINC000299841323    0.1100
4      C4     -2.4089    0.0992    0.0933 C.ar     1 ZINC000299841323   -0.1700
5      C5     -3.6373   -0.5455    0.0886 C.ar     1 ZINC000299841323   -0.0700
6      C6     -3.6921   -1.9229    0.0771 C.ar     1 ZINC000299841323   -0.0800
7      C7     -2.5168   -2.6609    0.0755 C.ar     1 ZINC000299841323   -0.1700
8      C8     -1.2895   -2.0231    0.0755 C.ar     1 ZINC000299841323    0.1000
9      O9     -0.1412   -2.7517    0.0728 O.3      1 ZINC000299841323   -0.3100
10     C10    -0.2756   -4.1743    0.0701 C.3      1 ZINC000299841323    0.0300
11     C11    -5.0026   -2.6657    0.0596 C.3      1 ZINC000299841323    0.0900
12     N12    -6.0986   -1.7840    0.4735 N.3      1 ZINC000299841323   -0.5200
13     C13    -7.3937   -2.4693    0.3688 C.3      1 ZINC000299841323    0.0400
14     C14    -7.6981   -2.7626   -1.1017 C.3      1 ZINC000299841323    0.0700
15     N15    -8.9897   -3.4460   -1.2061 N.pl3    1 ZINC000299841323   -0.2900
16     C16   -10.0376   -3.0491   -1.9647 C.2      1 ZINC000299841323   -0.0200
17     C17   -11.0160   -3.9625   -1.7635 C.2      1 ZINC000299841323   -0.0300
18     C18   -12.3881   -3.9661   -2.3867 C.3      1 ZINC000299841323    0.1600
19     O19   -12.5223   -2.8350   -3.2497 O.3      1 ZINC000299841323   -0.3200
20     C20   -13.7101   -2.6886   -3.8952 C.ar     1 ZINC000299841323    0.1000
21     C21   -14.7256   -3.6095   -3.6981 C.ar     1 ZINC000299841323   -0.1900
22     C22   -15.9330   -3.4593   -4.3553 C.ar     1 ZINC000299841323   -0.1000
23     C23   -16.1307   -2.3911   -5.2102 C.ar     1 ZINC000299841323   -0.1300
24     C24   -15.1224   -1.4674   -5.4125 C.ar     1 ZINC000299841323   -0.1000
25     C25   -13.9107   -1.6083   -4.7524 C.ar     1 ZINC000299841323    0.1200
26     N26   -12.8877   -0.6736   -4.9554 N.am     1 ZINC000299841323   -0.6600
27     C27   -13.1882    0.5788   -5.3524 C.2      1 ZINC000299841323    0.5600
28     O28   -14.3498    0.9273   -5.4372 O.2      1 ZINC000299841323   -0.5200
29     C29   -12.1054    1.5286   -5.6846 C.ar     1 ZINC000299841323   -0.1400
30     C30   -10.7708    1.1299   -5.5939 C.ar     1 ZINC000299841323   -0.0800
31     C31    -9.7651    2.0212   -5.9059 C.ar     1 ZINC000299841323   -0.1200
32     C32   -10.0770    3.3079   -6.3076 C.ar     1 ZINC000299841323   -0.0400
33     C33    -8.9731    4.2763   -6.6463 C.3      1 ZINC000299841323   -0.0400
34     C34    -8.1413    3.7173   -7.8024 C.3      1 ZINC000299841323   -0.1400
35     C35    -9.5808    5.6188   -7.0578 C.3      1 ZINC000299841323   -0.1500
36     C36    -8.0764    4.4759   -5.4228 C.3      1 ZINC000299841323   -0.1400
37     C37   -11.3978    3.7095   -6.4001 C.ar     1 ZINC000299841323   -0.1300
38     C38   -12.4133    2.8265   -6.0961 C.ar     1 ZINC000299841323   -0.0500
39     N39   -10.5253   -4.8615   -0.9031 N.2      1 ZINC000299841323   -0.2500
40     N40    -9.3208   -4.5301   -0.5964 N.2      1 ZINC000299841323   -0.0700
41     C41    -6.0891   -0.5492   -0.3268 C.3      1 ZINC000299841323    0.0400
42     C42    -4.8882    0.2957    0.0993 C.3      1 ZINC000299841323   -0.0700
43     H43     0.9659    1.8128    0.1060 H        1 ZINC000299841323    0.1000
44     H44    -0.5780    1.7968   -0.7798 H        1 ZINC000299841323    0.0500
45     H45    -0.5729    1.7797    1.0001 H        1 ZINC000299841323    0.0600
46     H46    -2.3691    1.1785    0.1009 H        1 ZINC000299841323    0.1400
47     H47    -2.5607   -3.7400    0.0705 H        1 ZINC000299841323    0.1400
48     H48     0.7133   -4.6327    0.0681 H        1 ZINC000299841323    0.1000
49     H49    -0.8204   -4.4895    0.9600 H        1 ZINC000299841323    0.0600
50     H50    -0.8223   -4.4860   -0.8199 H        1 ZINC000299841323    0.0500
51     H51    -5.1959   -3.0305   -0.9492 H        1 ZINC000299841323    0.0500
52     H52    -4.9450   -3.5130    0.7430 H        1 ZINC000299841323    0.0900
53     H53    -7.3555   -3.4055    0.9257 H        1 ZINC000299841323    0.1000
54     H54    -8.1761   -1.8325    0.7817 H        1 ZINC000299841323    0.0900
55     H55    -7.7363   -1.8264   -1.6586 H        1 ZINC000299841323    0.1100
56     H56    -6.9157   -3.3993   -1.5147 H        1 ZINC000299841323    0.1000
57     H57   -10.0840   -2.1786   -2.6022 H        1 ZINC000299841323    0.1900
58     H58   -12.5228   -4.8812   -2.9635 H        1 ZINC000299841323    0.0900
59     H59   -13.1435   -3.9164   -1.6025 H        1 ZINC000299841323    0.0900
60     H60   -14.5743   -4.4454   -3.0311 H        1 ZINC000299841323    0.1300
61     H61   -16.7235   -4.1787   -4.2006 H        1 ZINC000299841323    0.1300
62     H62   -17.0753   -2.2781   -5.7216 H        1 ZINC000299841323    0.1300
63     H63   -15.2796   -0.6338   -6.0810 H        1 ZINC000299841323    0.1500
64     H64   -11.9628   -0.9276   -4.8103 H        1 ZINC000299841323    0.4100
65     H65   -10.5260    0.1260   -5.2798 H        1 ZINC000299841323    0.1200
66     H66    -8.7321    1.7140   -5.8361 H        1 ZINC000299841323    0.1300
67     H67    -8.7801    3.5751   -8.6741 H        1 ZINC000299841323    0.0600
68     H68    -7.3428    4.4177   -8.0475 H        1 ZINC000299841323    0.0600
69     H69    -7.7083    2.7609   -7.5093 H        1 ZINC000299841323    0.0600
70     H70   -10.1734    6.0170   -6.2341 H        1 ZINC000299841323    0.0600
71     H71    -8.7823    6.3192   -7.3028 H        1 ZINC000299841323    0.0600
72     H72   -10.2196    5.4766   -7.9294 H        1 ZINC000299841323    0.0600
73     H73    -7.6435    3.5195   -5.1297 H        1 ZINC000299841323    0.0600
74     H74    -7.2780    5.1763   -5.6678 H        1 ZINC000299841323    0.0600
75     H75    -8.6690    4.8741   -4.5992 H        1 ZINC000299841323    0.0600
76     H76   -11.6345    4.7152   -6.7146 H        1 ZINC000299841323    0.1400
77     H77   -13.4438    3.1412   -6.1687 H        1 ZINC000299841323    0.1400
78     H78    -6.0044   -0.7988   -1.3844 H        1 ZINC000299841323    0.0400
79     H79    -7.0094    0.0079   -0.1516 H        1 ZINC000299841323    0.0900
80     H80    -5.0560    0.6820    1.1047 H        1 ZINC000299841323    0.0900
81     H81    -4.7691    1.1300   -0.5920 H        1 ZINC000299841323    0.0800
@<TRIPOS>BOND
1     1     2     1
2     1     43    1
3     1     44    1
4     1     45    1
5     2     3     1
6     3     8     ar
7     3     4     ar
8     4     5     ar
9     4     46    1
10    5     42    1
11    5     6     ar
12    6     7     ar
13    6     11    1
14    7     8     ar
15    7     47    1
16    8     9     1
17    9     10    1
18    10    48    1
19    10    49    1
20    10    50    1
21    11    12    1
22    11    51    1
23    11    52    1
24    12    13    1
25    12    41    1
26    13    14    1
27    13    53    1
28    13    54    1
29    14    15    1
30    14    55    1
31    14    56    1
32    15    40    1
33    15    16    1
34    16    17    2
35    16    57    1
36    17    18    1
37    17    39    1
38    18    19    1
39    18    58    1
40    18    59    1
41    19    20    1
42    20    25    ar
43    20    21    ar
44    21    22    ar
45    21    60    1
46    22    23    ar
47    22    61    1
48    23    24    ar
49    23    62    1
50    24    25    ar
51    24    63    1
52    25    26    1
53    26    27    am
54    26    64    1
55    27    28    2
56    27    29    1
57    29    38    ar
58    29    30    ar
59    30    31    ar
60    30    65    1
61    31    32    ar
62    31    66    1
63    32    33    1
64    32    37    ar
65    33    34    1
66    33    35    1
67    33    36    1
68    34    67    1
69    34    68    1
70    34    69    1
71    35    70    1
72    35    71    1
73    35    72    1
74    36    73    1
75    36    74    1
76    36    75    1
77    37    38    ar
78    37    76    1
79    38    77    1
80    39    40    2
81    41    42    1
82    41    78    1
83    41    79    1
84    42    80    1
85    42    81    1
@<TRIPOS>SUBSTRUCTURE
1   ZINC000299841323 1     RESIDUE    1   A     ZIN   1
