@<TRIPOS>MOLECULE
ZINC000088346058
47    51    1     0     0
SMALL
USER_CHARGES
@<TRIPOS>ATOM
1      C1     -0.0250   -0.5254   -0.7613 C.3      1 ZINC000088346058   -0.2000
2      C2     -0.3584   -0.6572    0.7261 C.3      1 ZINC000088346058    0.1800
3      H3     -0.0888   -1.6552    1.0718 H        1 ZINC000088346058    0.1200
4      N4     -1.7937   -0.4425    0.9258 N.pl3    1 ZINC000088346058   -0.6800
5      C5     -2.7064   -0.9948    0.0416 C.ar     1 ZINC000088346058    0.4500
6      C6     -4.0772   -0.7952    0.2138 C.ar     1 ZINC000088346058   -0.0800
7      N7     -4.8624   -0.1232    1.1267 N.pl3    1 ZINC000088346058   -0.5700
8      C8     -6.1498   -0.3023    0.7541 C.2      1 ZINC000088346058    0.3100
9      N9     -6.2071   -1.0362   -0.3221 N.2      1 ZINC000088346058   -0.4900
10     C10    -4.9631   -1.3752   -0.7094 C.ar     1 ZINC000088346058    0.3200
11     N11    -4.4587   -2.0950   -1.7165 N.ar     1 ZINC000088346058   -0.5000
12     C12    -3.1595   -2.2556   -1.8385 C.ar     1 ZINC000088346058    0.3300
13     N13    -2.2957   -1.7226   -0.9938 N.ar     1 ZINC000088346058   -0.5500
14     C14     0.4170    0.3717    1.5078 C.2      1 ZINC000088346058    0.1200
15     C15     1.6728    0.0851    1.8868 C.2      1 ZINC000088346058   -0.1700
16     C16     2.4387    1.0751    2.6464 C.ar     1 ZINC000088346058    0.0100
17     C17     3.7468    0.8326    3.0660 C.ar     1 ZINC000088346058   -0.1200
18     C18     4.4226    1.7991    3.7779 C.ar     1 ZINC000088346058   -0.0700
19     C19     3.8170    3.0107    4.0823 C.ar     1 ZINC000088346058   -0.1300
20     C20     2.5247    3.2736    3.6788 C.ar     1 ZINC000088346058    0.0300
21     Cl21    1.7795    4.7929    4.0662 Cl       1 ZINC000088346058   -0.0300
22     C22     1.8207    2.3093    2.9559 C.ar     1 ZINC000088346058   -0.1500
23     C23     0.4450    2.5318    2.5004 C.2      1 ZINC000088346058    0.5400
24     O24    -0.1231    3.5807    2.7465 O.2      1 ZINC000088346058   -0.4800
25     N25    -0.1817    1.5653    1.8007 N.am     1 ZINC000088346058   -0.4500
26     C26    -1.4952    1.7866    1.3692 C.ar     1 ZINC000088346058   -0.0200
27     C27    -2.3486    2.5855    2.1189 C.ar     1 ZINC000088346058   -0.0600
28     C28    -3.6435    2.8023    1.6904 C.ar     1 ZINC000088346058   -0.1900
29     C29    -4.0905    2.2247    0.5162 C.ar     1 ZINC000088346058   -0.0700
30     C30    -3.2432    1.4287   -0.2327 C.ar     1 ZINC000088346058   -0.2200
31     C31    -1.9456    1.2123    0.1877 C.ar     1 ZINC000088346058   -0.0100
32     H32     0.7994   -1.1938   -1.0095 H        1 ZINC000088346058    0.0900
33     H33    -0.8998   -0.7915   -1.3547 H        1 ZINC000088346058    0.1400
34     H34     0.2628    0.5031   -0.9794 H        1 ZINC000088346058    0.0600
35     H35    -2.1051    0.0863    1.6770 H        1 ZINC000088346058    0.4300
36     H36    -4.5497    0.3828    1.8929 H        1 ZINC000088346058    0.4300
37     H37    -7.0059    0.1036    1.2725 H        1 ZINC000088346058    0.2300
38     H38    -2.7842   -2.8429   -2.6635 H        1 ZINC000088346058    0.2100
39     H39     2.1141   -0.8676    1.6338 H        1 ZINC000088346058    0.1600
40     H40     4.2265   -0.1069    2.8344 H        1 ZINC000088346058    0.1400
41     H41     5.4352    1.6120    4.1034 H        1 ZINC000088346058    0.1400
42     H42     4.3638    3.7555    4.6415 H        1 ZINC000088346058    0.1400
43     H43    -2.0001    3.0366    3.0363 H        1 ZINC000088346058    0.1400
44     H44    -4.3078    3.4232    2.2732 H        1 ZINC000088346058    0.1300
45     H45    -5.1037    2.3954    0.1834 H        1 ZINC000088346058    0.1200
46     H46    -3.5954    0.9790   -1.1493 H        1 ZINC000088346058    0.1200
47     H47    -1.2842    0.5908   -0.3977 H        1 ZINC000088346058    0.1600
@<TRIPOS>BOND
1     1     2     1
2     1     32    1
3     1     33    1
4     1     34    1
5     2     3     1
6     2     4     1
7     2     14    1
8     4     5     1
9     4     35    1
10    5     13    ar
11    5     6     ar
12    6     10    ar
13    6     7     1
14    7     8     1
15    7     36    1
16    8     9     2
17    8     37    1
18    9     10    1
19    10    11    ar
20    11    12    ar
21    12    13    ar
22    12    38    1
23    14    25    1
24    14    15    2
25    15    16    1
26    15    39    1
27    16    22    ar
28    16    17    ar
29    17    18    ar
30    17    40    1
31    18    19    ar
32    18    41    1
33    19    20    ar
34    19    42    1
35    20    21    1
36    20    22    ar
37    22    23    1
38    23    24    2
39    23    25    am
40    25    26    1
41    26    31    ar
42    26    27    ar
43    27    28    ar
44    27    43    1
45    28    29    ar
46    28    44    1
47    29    30    ar
48    29    45    1
49    30    31    ar
50    30    46    1
51    31    47    1
@<TRIPOS>SUBSTRUCTURE
1   ZINC000088346058 1     RESIDUE    1   A     ZIN   1
