@<TRIPOS>MOLECULE
ZINC000012355112
41    43    1     0     0
SMALL
USER_CHARGES
@<TRIPOS>ATOM
1      N1      0.0514    1.0588   -1.5629 N.pl3    1 ZINC000012355112   -0.7800
2      C2      0.0376   -0.2200   -1.0441 C.2      1 ZINC000012355112    0.6100
3      N3     -1.0325   -0.9342   -0.7712 N.2      1 ZINC000012355112   -0.5900
4      C4     -0.6679   -2.1259   -0.2822 C.2      1 ZINC000012355112    0.5300
5      N5     -1.5412   -3.1374    0.1142 N.pl3    1 ZINC000012355112   -0.6300
6      C6     -2.9150   -2.9988   -0.1015 C.ar     1 ZINC000012355112    0.2300
7      C7     -3.8199   -3.5701    0.7843 C.ar     1 ZINC000012355112   -0.1700
8      C8     -5.1767   -3.4313    0.5682 C.ar     1 ZINC000012355112    0.0100
9      C9     -5.6350   -2.7245   -0.5285 C.ar     1 ZINC000012355112   -0.7000
10     S10    -7.3671   -2.5497   -0.8005 S.o2     1 ZINC000012355112    2.7000
11     N11    -7.8495   -1.1716   -0.0191 N.am     1 ZINC000012355112   -1.2500
12     O12    -7.5322   -2.3019   -2.1899 O.2      1 ZINC000012355112   -0.9600
13     O13    -7.9907   -3.6332   -0.1249 O.2      1 ZINC000012355112   -0.9600
14     C14    -4.7370   -2.1541   -1.4120 C.ar     1 ZINC000012355112    0.0100
15     C15    -3.3788   -2.2846   -1.1990 C.ar     1 ZINC000012355112   -0.1500
16     N16     0.6406   -2.1908   -0.2354 N.2      1 ZINC000012355112   -0.3900
17     N17     1.1304   -0.9705   -0.7284 N.am     1 ZINC000012355112   -0.3700
18     C18     2.4228   -0.6104   -0.8562 C.2      1 ZINC000012355112    0.5300
19     S19     2.8280    0.8701   -1.6144 S.2      1 ZINC000012355112   -0.4700
20     N20     3.3963   -1.4158   -0.3870 N.am     1 ZINC000012355112   -0.5800
21     C21     4.7350   -1.0066   -0.4494 C.ar     1 ZINC000012355112    0.0400
22     C22     5.7217   -1.9070   -0.8336 C.ar     1 ZINC000012355112    0.1300
23     F23     5.3915   -3.1787   -1.1481 F        1 ZINC000012355112   -0.1200
24     C24     7.0422   -1.4991   -0.8939 C.ar     1 ZINC000012355112   -0.1500
25     C25     7.3810   -0.1977   -0.5726 C.ar     1 ZINC000012355112   -0.0500
26     C26     6.4024    0.7009   -0.1896 C.ar     1 ZINC000012355112   -0.1500
27     C27     5.0789    0.3024   -0.1328 C.ar     1 ZINC000012355112    0.1700
28     F28     4.1234    1.1811    0.2417 F        1 ZINC000012355112   -0.0900
29     H29     0.8887    1.5428   -1.6377 H        1 ZINC000012355112    0.4300
30     H30    -0.7756    1.4721   -1.8564 H        1 ZINC000012355112    0.4200
31     H31    -1.1954   -3.9376    0.5398 H        1 ZINC000012355112    0.4300
32     H32    -3.4626   -4.1226    1.6408 H        1 ZINC000012355112    0.1400
33     H33    -5.8808   -3.8755    1.2562 H        1 ZINC000012355112    0.1500
34     H34    -7.2020   -0.6386    0.4683 H        1 ZINC000012355112    0.4200
35     H35    -8.7794   -0.8975   -0.0489 H        1 ZINC000012355112    0.4200
36     H36    -5.0983   -1.6024   -2.2674 H        1 ZINC000012355112    0.1500
37     H37    -2.6780   -1.8386   -1.8892 H        1 ZINC000012355112    0.1500
38     H38     3.1702   -2.2788   -0.0062 H        1 ZINC000012355112    0.4300
39     H39     7.8095   -2.1983   -1.1920 H        1 ZINC000012355112    0.1500
40     H40     8.4128    0.1178   -0.6207 H        1 ZINC000012355112    0.1500
41     H41     6.6711    1.7164    0.0613 H        1 ZINC000012355112    0.1500
@<TRIPOS>BOND
1     1     2     1
2     1     29    1
3     1     30    1
4     2     17    1
5     2     3     2
6     3     4     1
7     4     5     1
8     4     16    2
9     5     6     1
10    5     31    1
11    6     15    ar
12    6     7     ar
13    7     8     ar
14    7     32    1
15    8     9     ar
16    8     33    1
17    9     10    1
18    9     14    ar
19    10    11    am
20    10    12    2
21    10    13    2
22    11    34    1
23    11    35    1
24    14    15    ar
25    14    36    1
26    15    37    1
27    16    17    1
28    17    18    am
29    18    19    2
30    18    20    am
31    20    21    1
32    20    38    1
33    21    27    ar
34    21    22    ar
35    22    23    1
36    22    24    ar
37    24    25    ar
38    24    39    1
39    25    26    ar
40    25    40    1
41    26    27    ar
42    26    41    1
43    27    28    1
@<TRIPOS>SUBSTRUCTURE
1   ZINC000012355112 1     RESIDUE    1   A     ZIN   1
