@<TRIPOS>MOLECULE
ZINC000004099034
47    50    1     0     0
SMALL
USER_CHARGES
@<TRIPOS>ATOM
1      C1     -3.4665    0.2704   -2.7738 C.3      1 ZINC000004099034    0.0300
2      N2     -2.8813   -0.9995   -2.3234 N.3      1 ZINC000004099034   -0.5500
3      C3     -3.8034   -2.1185   -2.5626 C.3      1 ZINC000004099034    0.0600
4      C4     -3.1272   -3.4294   -2.1544 C.3      1 ZINC000004099034    0.0600
5      N5     -2.7448   -3.3597   -0.7371 N.3      1 ZINC000004099034   -0.5000
6      C6     -2.1901   -4.5636   -0.3101 C.ar     1 ZINC000004099034    0.1100
7      C7     -1.0422   -5.0454   -0.9182 C.ar     1 ZINC000004099034   -0.1800
8      C8     -0.4868   -6.2464   -0.4932 C.ar     1 ZINC000004099034    0.2000
9      C9     -1.1035   -6.9558    0.5531 C.ar     1 ZINC000004099034   -0.1600
10     C10    -2.2611   -6.4579    1.1568 C.ar     1 ZINC000004099034   -0.0600
11     C11    -2.7925   -5.2733    0.7323 C.ar     1 ZINC000004099034    0.0800
12     F12    -3.9117   -4.7910    1.3154 F        1 ZINC000004099034   -0.1300
13     C13    -0.5044   -8.2268    0.9933 C.2      1 ZINC000004099034    0.4200
14     O14    -0.9976   -8.8822    1.8949 O.2      1 ZINC000004099034   -0.4400
15     C15     0.7153   -8.6738    0.2988 C.2      1 ZINC000004099034   -0.2900
16     C16     1.3715   -9.9290    0.6785 C.2      1 ZINC000004099034    0.5400
17     O17     2.3847  -10.2910    0.0946 O.co2    1 ZINC000004099034   -0.7000
18     O18     0.9060  -10.6149    1.5793 O.co2    1 ZINC000004099034   -0.6600
19     C19     1.2309   -7.8911   -0.7167 C.2      1 ZINC000004099034    0.1600
20     N20     0.6568   -6.7391   -1.0901 N.pl3    1 ZINC000004099034   -0.4600
21     C21     1.2410   -6.0045   -2.1290 C.ar     1 ZINC000004099034    0.1000
22     C22     2.2066   -5.0471   -1.8462 C.ar     1 ZINC000004099034   -0.0700
23     C23     2.7819   -4.3240   -2.8724 C.ar     1 ZINC000004099034   -0.1400
24     C24     2.3963   -4.5525   -4.1828 C.ar     1 ZINC000004099034    0.1100
25     F25     2.9600   -3.8436   -5.1852 F        1 ZINC000004099034   -0.1400
26     C26     1.4339   -5.5070   -4.4670 C.ar     1 ZINC000004099034   -0.1400
27     C27     0.8599   -6.2361   -3.4443 C.ar     1 ZINC000004099034   -0.0700
28     C28    -1.8228   -2.2407   -0.4979 C.3      1 ZINC000004099034    0.0600
29     C29    -2.4989   -0.9298   -0.9061 C.3      1 ZINC000004099034    0.0600
30     H30    -2.7379    1.0712   -2.6474 H        1 ZINC000004099034    0.0700
31     H31    -3.7405    0.1912   -3.8259 H        1 ZINC000004099034    0.0700
32     H32    -4.3552    0.4910   -2.1825 H        1 ZINC000004099034    0.0300
33     H33    -4.7083   -1.9767   -1.9718 H        1 ZINC000004099034    0.0500
34     H34    -4.0619   -2.1568   -3.6209 H        1 ZINC000004099034    0.0800
35     H35    -3.8198   -4.2577   -2.3038 H        1 ZINC000004099034    0.0800
36     H36    -2.2371   -3.5847   -2.7640 H        1 ZINC000004099034    0.0500
37     H37    -0.5804   -4.4892   -1.7206 H        1 ZINC000004099034    0.1400
38     H38    -2.7319   -7.0058    1.9597 H        1 ZINC000004099034    0.1500
39     H39     2.1253   -8.2183   -1.2258 H        1 ZINC000004099034    0.1700
40     H40     2.5071   -4.8681   -0.8244 H        1 ZINC000004099034    0.1400
41     H41     3.5328   -3.5794   -2.6529 H        1 ZINC000004099034    0.1400
42     H42     1.1346   -5.6837   -5.4896 H        1 ZINC000004099034    0.1400
43     H43     0.1098   -6.9806   -3.6664 H        1 ZINC000004099034    0.1400
44     H44    -1.5643   -2.2024    0.5603 H        1 ZINC000004099034    0.0800
45     H45    -0.9178   -2.3825   -1.0887 H        1 ZINC000004099034    0.0500
46     H46    -1.8063   -0.1015   -0.7567 H        1 ZINC000004099034    0.0800
47     H47    -3.3890   -0.7745   -0.2965 H        1 ZINC000004099034    0.0500
@<TRIPOS>BOND
1     1     2     1
2     1     30    1
3     1     31    1
4     1     32    1
5     2     29    1
6     2     3     1
7     3     4     1
8     3     33    1
9     3     34    1
10    4     5     1
11    4     35    1
12    4     36    1
13    5     6     1
14    5     28    1
15    6     11    ar
16    6     7     ar
17    7     8     ar
18    7     37    1
19    8     20    1
20    8     9     ar
21    9     10    ar
22    9     13    1
23    10    11    ar
24    10    38    1
25    11    12    1
26    13    14    2
27    13    15    1
28    15    16    1
29    15    19    2
30    16    17    ar
31    16    18    ar
32    19    20    1
33    19    39    1
34    20    21    1
35    21    27    ar
36    21    22    ar
37    22    23    ar
38    22    40    1
39    23    24    ar
40    23    41    1
41    24    25    1
42    24    26    ar
43    26    27    ar
44    26    42    1
45    27    43    1
46    28    29    1
47    28    44    1
48    28    45    1
49    29    46    1
50    29    47    1
@<TRIPOS>SUBSTRUCTURE
1   ZINC000004099034 1     RESIDUE    1   A     ZIN   1
