@<TRIPOS>MOLECULE
ZINC000003831415
84    89    1     0     0
SMALL
USER_CHARGES
@<TRIPOS>ATOM
1      C1      0.3231    1.4045   -0.0292 C.3      1 ZINC000003831415    0.0300
2      O2      0.1202   -0.0289   -0.1414 O.3      1 ZINC000003831415   -0.3400
3      C3      0.5188   -0.6133   -1.2822 C.2      1 ZINC000003831415    0.4800
4      O4      0.9249    0.0629   -2.1975 O.2      1 ZINC000003831415   -0.4900
5      C5      0.4599   -2.1127   -1.4213 C.3      1 ZINC000003831415   -0.0700
6      H6      0.9768   -2.5768   -0.5813 H        1 ZINC000003831415    0.1100
7      C7      1.1326   -2.5310   -2.7290 C.3      1 ZINC000003831415   -0.0600
8      H8      1.0784   -3.6145   -2.8346 H        1 ZINC000003831415    0.0800
9      C9      2.5990   -2.0918   -2.7282 C.3      1 ZINC000003831415   -0.1200
10     C10     3.2299   -2.4763   -4.0683 C.3      1 ZINC000003831415    0.1700
11     H11     3.1783   -3.5572   -4.1988 H        1 ZINC000003831415    0.0500
12     C12     4.6708   -2.0318   -4.1057 C.2      1 ZINC000003831415    0.0600
13     C13     5.2276   -1.4406   -5.1878 C.2      1 ZINC000003831415   -0.1400
14     C14     4.4763   -1.1625   -6.4653 C.3      1 ZINC000003831415   -0.0400
15     C15     3.1819   -1.9878   -6.4495 C.3      1 ZINC000003831415    0.0600
16     N16     2.5018   -1.8140   -5.1599 N.3      1 ZINC000003831415   -0.5300
17     C17     1.1023   -2.2526   -5.2179 C.3      1 ZINC000003831415    0.0700
18     C18     0.4094   -1.8676   -3.9039 C.3      1 ZINC000003831415   -0.1000
19     H19     0.4442   -0.7853   -3.7795 H        1 ZINC000003831415    0.1300
20     C20    -1.0477   -2.3304   -3.9242 C.3      1 ZINC000003831415   -0.1100
21     C21    -1.7241   -1.9249   -2.6122 C.3      1 ZINC000003831415    0.0700
22     H22    -2.7624   -2.2564   -2.6218 H        1 ZINC000003831415    0.1000
23     O23    -1.6792   -0.4804   -2.4717 O.3      1 ZINC000003831415   -0.3300
24     C24    -2.7622    0.1160   -1.9359 C.2      1 ZINC000003831415    0.5200
25     O25    -3.6825   -0.5581   -1.5177 O.2      1 ZINC000003831415   -0.4900
26     C26    -2.8305    1.5871   -1.8572 C.ar     1 ZINC000003831415   -0.0500
27     C27    -1.8205    2.3664   -2.4280 C.ar     1 ZINC000003831415   -0.1800
28     C28    -1.8873    3.7449   -2.3532 C.ar     1 ZINC000003831415    0.1400
29     O29    -0.9050    4.5038   -2.9088 O.3      1 ZINC000003831415   -0.3000
30     C30     0.1060    3.8163   -3.6486 C.3      1 ZINC000003831415    0.0200
31     C31    -2.9596    4.3573   -1.7097 C.ar     1 ZINC000003831415    0.0600
32     O32    -3.0228    5.7128   -1.6376 O.3      1 ZINC000003831415   -0.3100
33     C33    -3.6959    6.3884   -2.7018 C.3      1 ZINC000003831415    0.0400
34     C34    -3.9676    3.5834   -1.1405 C.ar     1 ZINC000003831415    0.1400
35     O35    -5.0140    4.1848   -0.5136 O.3      1 ZINC000003831415   -0.3000
36     C36    -6.0121    3.3301    0.0479 C.3      1 ZINC000003831415    0.0200
37     C37    -3.9083    2.2046   -1.2166 C.ar     1 ZINC000003831415   -0.1700
38     C38    -1.0016   -2.5677   -1.4366 C.3      1 ZINC000003831415    0.0800
39     H39    -1.0439   -3.6525   -1.5341 H        1 ZINC000003831415    0.0900
40     O40    -1.6344   -2.1748   -0.2171 O.3      1 ZINC000003831415   -0.3600
41     C41    -2.6846   -3.0492    0.2007 C.3      1 ZINC000003831415    0.0300
42     C42     6.6084   -1.1608   -4.8587 C.ar     1 ZINC000003831415   -0.1300
43     C43     7.6538   -0.5702   -5.5752 C.ar     1 ZINC000003831415   -0.0200
44     C44     8.8644   -0.4638   -4.9371 C.ar     1 ZINC000003831415   -0.2300
45     C45     9.0551   -0.9187   -3.6383 C.ar     1 ZINC000003831415    0.1500
46     O46    10.2812   -0.7829   -3.0671 O.3      1 ZINC000003831415   -0.3200
47     C47    11.3016   -0.1714   -3.8588 C.3      1 ZINC000003831415    0.0300
48     C48     8.0332   -1.5074   -2.9045 C.ar     1 ZINC000003831415   -0.1700
49     C49     6.7953   -1.6270   -3.5309 C.ar     1 ZINC000003831415    0.1400
50     N50     5.6035   -2.1444   -3.1093 N.pl3    1 ZINC000003831415   -0.5800
51     H51     1.3914    1.6196   -0.0080 H        1 ZINC000003831415    0.0600
52     H52    -0.1312    1.9038   -0.8849 H        1 ZINC000003831415    0.0600
53     H53    -0.1386    1.7659    0.8897 H        1 ZINC000003831415    0.1000
54     H54     2.6568   -1.0117   -2.5937 H        1 ZINC000003831415    0.1000
55     H55     3.1297   -2.5917   -1.9178 H        1 ZINC000003831415    0.0600
56     H56     4.2352   -0.1013   -6.5266 H        1 ZINC000003831415    0.0800
57     H57     5.0864   -1.4516   -7.3211 H        1 ZINC000003831415    0.0700
58     H58     2.5265   -1.6515   -7.2529 H        1 ZINC000003831415    0.0800
59     H59     3.4209   -3.0416   -6.5922 H        1 ZINC000003831415    0.0400
60     H60     0.6022   -1.7659   -6.0552 H        1 ZINC000003831415    0.0800
61     H61     1.0644   -3.3342   -5.3482 H        1 ZINC000003831415    0.0300
62     H62    -1.5666   -1.8627   -4.7610 H        1 ZINC000003831415    0.0800
63     H63    -1.0839   -3.4144   -4.0326 H        1 ZINC000003831415    0.0900
64     H64    -0.9884    1.8919   -2.9269 H        1 ZINC000003831415    0.1600
65     H65    -0.3431    3.3364   -4.5181 H        1 ZINC000003831415    0.0600
66     H66     0.8633    4.5281   -3.9771 H        1 ZINC000003831415    0.1100
67     H67     0.5689    3.0600   -3.0147 H        1 ZINC000003831415    0.0700
68     H68    -3.6740    7.4631   -2.5212 H        1 ZINC000003831415    0.1000
69     H69    -3.1965    6.1683   -3.6453 H        1 ZINC000003831415    0.0500
70     H70    -4.7306    6.0492   -2.7506 H        1 ZINC000003831415    0.0500
71     H71    -6.4540    2.7209   -0.7405 H        1 ZINC000003831415    0.0600
72     H72    -5.5561    2.6815    0.7958 H        1 ZINC000003831415    0.0600
73     H73    -6.7875    3.9361    0.5165 H        1 ZINC000003831415    0.1100
74     H74    -4.6906    1.6048   -0.7753 H        1 ZINC000003831415    0.1500
75     H75    -2.2837   -4.0510    0.3546 H        1 ZINC000003831415    0.0400
76     H76    -3.1136   -2.6822    1.1331 H        1 ZINC000003831415    0.0900
77     H77    -3.4577   -3.0813   -0.5671 H        1 ZINC000003831415    0.0500
78     H78     7.5151   -0.2142   -6.5854 H        1 ZINC000003831415    0.1300
79     H79     9.6943   -0.0129   -5.4609 H        1 ZINC000003831415    0.1300
80     H80    11.4627   -0.7603   -4.7618 H        1 ZINC000003831415    0.0600
81     H81    10.9930    0.8373   -4.1332 H        1 ZINC000003831415    0.0600
82     H82    12.2274   -0.1248   -3.2854 H        1 ZINC000003831415    0.1000
83     H83     8.1916   -1.8568   -1.8949 H        1 ZINC000003831415    0.1300
84     H84     5.4419   -2.5326   -2.2351 H        1 ZINC000003831415    0.4100
@<TRIPOS>BOND
1     1     2     1
2     1     51    1
3     1     52    1
4     1     53    1
5     2     3     1
6     3     4     2
7     3     5     1
8     5     6     1
9     5     38    1
10    5     7     1
11    7     8     1
12    7     18    1
13    7     9     1
14    9     10    1
15    9     54    1
16    9     55    1
17    10    11    1
18    10    16    1
19    10    12    1
20    12    50    1
21    12    13    2
22    13    14    1
23    13    42    1
24    14    15    1
25    14    56    1
26    14    57    1
27    15    16    1
28    15    58    1
29    15    59    1
30    16    17    1
31    17    18    1
32    17    60    1
33    17    61    1
34    18    19    1
35    18    20    1
36    20    21    1
37    20    62    1
38    20    63    1
39    21    22    1
40    21    23    1
41    21    38    1
42    23    24    1
43    24    25    2
44    24    26    1
45    26    37    ar
46    26    27    ar
47    27    28    ar
48    27    64    1
49    28    29    1
50    28    31    ar
51    29    30    1
52    30    65    1
53    30    66    1
54    30    67    1
55    31    32    1
56    31    34    ar
57    32    33    1
58    33    68    1
59    33    69    1
60    33    70    1
61    34    35    1
62    34    37    ar
63    35    36    1
64    36    71    1
65    36    72    1
66    36    73    1
67    37    74    1
68    38    39    1
69    38    40    1
70    40    41    1
71    41    75    1
72    41    76    1
73    41    77    1
74    42    49    ar
75    42    43    ar
76    43    44    ar
77    43    78    1
78    44    45    ar
79    44    79    1
80    45    46    1
81    45    48    ar
82    46    47    1
83    47    80    1
84    47    81    1
85    47    82    1
86    48    49    ar
87    48    83    1
88    49    50    1
89    50    84    1
@<TRIPOS>SUBSTRUCTURE
1   ZINC000003831415 1     RESIDUE    1   A     ZIN   1
