@<TRIPOS>MOLECULE
ZINC000034048998
56    61    1     0     0
SMALL
USER_CHARGES
@<TRIPOS>ATOM
1      N1      0.1099    1.3838    0.5038 N.pl3    1 ZINC000034048998   -0.8400
2      C2      0.1399   -0.0003    0.5286 C.ar     1 ZINC000034048998    0.4300
3      C3     -0.8897   -0.6987    1.1564 C.ar     1 ZINC000034048998   -0.2500
4      C4     -0.8571   -2.0670    1.1787 C.ar     1 ZINC000034048998    0.0300
5      C5      0.2212   -2.7210    0.5634 C.ar     1 ZINC000034048998   -0.2600
6      C6      0.3002   -4.1940    0.5610 C.2      1 ZINC000034048998    0.5800
7      O7     -0.5731   -4.8505    1.0949 O.2      1 ZINC000034048998   -0.5200
8      N8      1.3402   -4.8122   -0.0328 N.am     1 ZINC000034048998   -0.6700
9      C9      1.4663   -6.2028    0.0484 C.ar     1 ZINC000034048998    0.1400
10     C10     0.3321   -7.0053    0.0371 C.ar     1 ZINC000034048998   -0.0900
11     C11     0.4526   -8.3799    0.1172 C.ar     1 ZINC000034048998   -0.1100
12     C12     1.7003   -8.9634    0.2082 C.ar     1 ZINC000034048998   -0.0800
13     C13     2.8440   -8.1661    0.2202 C.ar     1 ZINC000034048998   -0.0300
14     C14     4.1855   -8.7915    0.3180 C.ar     1 ZINC000034048998    0.3900
15     N15     5.2579   -8.0146    0.3330 N.ar     1 ZINC000034048998   -0.4900
16     C16     6.4739   -8.5443    0.4198 C.ar     1 ZINC000034048998    0.1700
17     C17     6.6173   -9.9353    0.4957 C.ar     1 ZINC000034048998   -0.0400
18     O18     7.9309  -10.2315    0.5753 O.3      1 ZINC000034048998   -0.1700
19     C19     8.6923   -9.1166    0.5579 C.ar     1 ZINC000034048998    0.3100
20     C20     7.8419   -8.0036    0.4608 C.ar     1 ZINC000034048998   -0.1800
21     C21     8.3850   -6.7216    0.4239 C.ar     1 ZINC000034048998    0.0100
22     C22     9.7619   -6.5941    0.4854 C.ar     1 ZINC000034048998   -0.2000
23     C23    10.5426   -7.7339    0.5804 C.ar     1 ZINC000034048998    0.1700
24     N24    10.0051   -8.9351    0.6135 N.ar     1 ZINC000034048998   -0.4800
25     C25     5.4554  -10.7182    0.4768 C.ar     1 ZINC000034048998    0.4000
26     N26     5.5356  -12.1005    0.5492 N.3      1 ZINC000034048998   -0.4700
27     C27     6.3805  -12.6364   -0.5280 C.3      1 ZINC000034048998    0.0200
28     C28     6.4899  -14.1558   -0.3755 C.3      1 ZINC000034048998    0.0700
29     O29     5.1784  -14.7262   -0.3815 O.3      1 ZINC000034048998   -0.3800
30     C30     4.3288  -14.2271    0.6551 C.3      1 ZINC000034048998    0.0600
31     C31     4.1975  -12.7084    0.5130 C.3      1 ZINC000034048998    0.0300
32     N32     4.2766  -10.1140    0.3933 N.ar     1 ZINC000034048998   -0.5200
33     C33     2.7239   -6.7816    0.1343 C.ar     1 ZINC000034048998   -0.0900
34     C34     1.2180   -1.9575   -0.0470 C.ar     1 ZINC000034048998    0.2000
35     N35     1.1455   -0.6430   -0.0501 N.ar     1 ZINC000034048998   -0.5500
36     H36     0.8210    1.8766    0.0652 H        1 ZINC000034048998    0.4100
37     H37    -0.6244    1.8605    0.9214 H        1 ZINC000034048998    0.4100
38     H38    -1.7057   -0.1653    1.6212 H        1 ZINC000034048998    0.1400
39     H39    -1.6432   -2.6305    1.6593 H        1 ZINC000034048998    0.1500
40     H40     2.0013   -4.2927   -0.5165 H        1 ZINC000034048998    0.4100
41     H41    -0.6464   -6.5538   -0.0340 H        1 ZINC000034048998    0.1400
42     H42    -0.4320   -8.9993    0.1088 H        1 ZINC000034048998    0.1300
43     H43     1.7906  -10.0378    0.2706 H        1 ZINC000034048998    0.1400
44     H44     7.7497   -5.8515    0.3491 H        1 ZINC000034048998    0.1500
45     H45    10.2219   -5.6173    0.4592 H        1 ZINC000034048998    0.1600
46     H46    11.6170   -7.6350    0.6284 H        1 ZINC000034048998    0.1800
47     H47     5.9337  -12.3987   -1.4934 H        1 ZINC000034048998    0.0600
48     H48     7.3739  -12.1919   -0.4666 H        1 ZINC000034048998    0.1000
49     H49     7.0682  -14.5641   -1.2043 H        1 ZINC000034048998    0.1100
50     H50     6.9853  -14.3923    0.5662 H        1 ZINC000034048998    0.0700
51     H51     3.3441  -14.6870    0.5715 H        1 ZINC000034048998    0.1100
52     H52     4.7614  -14.4657    1.6267 H        1 ZINC000034048998    0.0600
53     H53     3.5973  -12.3166    1.3342 H        1 ZINC000034048998    0.1000
54     H54     3.7158  -12.4720   -0.4358 H        1 ZINC000034048998    0.0700
55     H55     3.6068   -6.1597    0.1432 H        1 ZINC000034048998    0.1400
56     H56     2.0530   -2.4491   -0.5239 H        1 ZINC000034048998    0.1600
@<TRIPOS>BOND
1     1     2     1
2     1     36    1
3     1     37    1
4     2     35    ar
5     2     3     ar
6     3     4     ar
7     3     38    1
8     4     5     ar
9     4     39    1
10    5     6     1
11    5     34    ar
12    6     7     2
13    6     8     am
14    8     9     1
15    8     40    1
16    9     33    ar
17    9     10    ar
18    10    11    ar
19    10    41    1
20    11    12    ar
21    11    42    1
22    12    13    ar
23    12    43    1
24    13    14    1
25    13    33    ar
26    14    32    ar
27    14    15    ar
28    15    16    ar
29    16    20    1
30    16    17    ar
31    17    18    1
32    17    25    ar
33    18    19    1
34    19    24    ar
35    19    20    ar
36    20    21    ar
37    21    22    ar
38    21    44    1
39    22    23    ar
40    22    45    1
41    23    24    ar
42    23    46    1
43    25    26    1
44    25    32    ar
45    26    31    1
46    26    27    1
47    27    28    1
48    27    47    1
49    27    48    1
50    28    29    1
51    28    49    1
52    28    50    1
53    29    30    1
54    30    31    1
55    30    51    1
56    30    52    1
57    31    53    1
58    31    54    1
59    33    55    1
60    34    35    ar
61    34    56    1
@<TRIPOS>SUBSTRUCTURE
1   ZINC000034048998 1     RESIDUE    1   A     ZIN   1
