@<TRIPOS>MOLECULE
ZINC000033972992
57    60    1     0     0
SMALL
USER_CHARGES
@<TRIPOS>ATOM
1      C1      0.7583    0.1294    1.1947 C.3      1 ZINC000033972992    0.0300
2      O2     -0.0090   -0.0062   -0.0031 O.3      1 ZINC000033972992   -0.3200
3      C3      0.5979   -0.6089   -1.0601 C.ar     1 ZINC000033972992    0.1300
4      C4      1.9027   -1.0648   -0.9431 C.ar     1 ZINC000033972992   -0.2000
5      C5      2.5192   -1.6771   -2.0167 C.ar     1 ZINC000033972992   -0.0700
6      C6      1.8335   -1.8360   -3.2121 C.ar     1 ZINC000033972992    0.0600
7      O7      2.4403   -2.4392   -4.2690 O.3      1 ZINC000033972992   -0.2400
8      C8      2.5570   -3.7894   -4.2501 C.ar     1 ZINC000033972992    0.3800
9      C9      3.2607   -4.4495   -5.2493 C.ar     1 ZINC000033972992   -0.3100
10     C10     3.3520   -5.8378   -5.1852 C.ar     1 ZINC000033972992    0.4600
11     N11     4.0434   -6.5429   -6.1578 N.pl3    1 ZINC000033972992   -0.5900
12     C12     4.7768   -5.8233   -7.2021 C.3      1 ZINC000033972992    0.0900
13     C13     4.0409   -8.0078   -6.1415 C.3      1 ZINC000033972992    0.1300
14     C14     2.8619   -8.5250   -6.9682 C.3      1 ZINC000033972992    0.0400
15     O15     3.0453   -8.1625   -8.3382 O.3      1 ZINC000033972992   -0.3200
16     C16     2.0798   -8.5487   -9.2132 C.ar     1 ZINC000033972992    0.1200
17     C17     0.9757   -9.2570   -8.7615 C.ar     1 ZINC000033972992   -0.2100
18     C18    -0.0045   -9.6480   -9.6529 C.ar     1 ZINC000033972992   -0.0800
19     C19     0.1142   -9.3345  -10.9943 C.ar     1 ZINC000033972992   -0.1100
20     C20    -0.9564   -9.7628  -11.9645 C.3      1 ZINC000033972992   -0.0400
21     C21    -2.0207   -8.6683  -12.0653 C.3      1 ZINC000033972992   -0.0900
22     H22    -2.4068   -8.4159  -11.0778 H        1 ZINC000033972992    0.1100
23     S23    -1.3474   -7.1877  -12.8925 S.3      1 ZINC000033972992   -0.3900
24     C24    -2.4912   -7.2608  -14.2450 C.2      1 ZINC000033972992    0.5800
25     O25    -2.5438   -6.4888  -15.1826 O.2      1 ZINC000033972992   -0.5100
26     N26    -3.2844   -8.3161  -14.0483 N.pl3    1 ZINC000033972992   -0.7200
27     C27    -3.1430   -9.0965  -12.9853 C.2      1 ZINC000033972992    0.5200
28     O28    -3.8447  -10.0626  -12.7752 O.2      1 ZINC000033972992   -0.5400
29     C29     1.2134   -8.6283  -11.4469 C.ar     1 ZINC000033972992   -0.0600
30     C30     2.1938   -8.2304  -10.5587 C.ar     1 ZINC000033972992   -0.1500
31     N31     2.7656   -6.4774   -4.1756 N.ar     1 ZINC000033972992   -0.5900
32     C32     2.1070   -5.8139   -3.2472 C.ar     1 ZINC000033972992    0.3700
33     N33     2.0038   -4.5008   -3.2711 N.ar     1 ZINC000033972992   -0.6000
34     C34     0.5287   -1.3801   -3.3291 C.ar     1 ZINC000033972992   -0.0700
35     C35    -0.0897   -0.7729   -2.2536 C.ar     1 ZINC000033972992   -0.1400
36     H36     1.0539   -0.8576    1.5505 H        1 ZINC000033972992    0.0600
37     H37     1.6489    0.7237    0.9904 H        1 ZINC000033972992    0.0600
38     H38     0.1574    0.6254    1.9569 H        1 ZINC000033972992    0.1000
39     H39     2.4366   -0.9408   -0.0126 H        1 ZINC000033972992    0.1300
40     H40     3.5352   -2.0318   -1.9257 H        1 ZINC000033972992    0.1300
41     H41     3.7247   -3.9005   -6.0553 H        1 ZINC000033972992    0.1500
42     H42     5.7980   -5.6396   -6.8681 H        1 ZINC000033972992    0.0600
43     H43     4.7944   -6.4225   -8.1124 H        1 ZINC000033972992    0.0900
44     H44     4.2836   -4.8722   -7.4027 H        1 ZINC000033972992    0.0700
45     H45     4.9735   -8.3775   -6.5678 H        1 ZINC000033972992    0.0900
46     H46     3.9464   -8.3596   -5.1142 H        1 ZINC000033972992    0.1100
47     H47     2.8072   -9.6104   -6.8837 H        1 ZINC000033972992    0.0700
48     H48     1.9366   -8.0846   -6.5966 H        1 ZINC000033972992    0.0600
49     H49     0.8829   -9.5027   -7.7139 H        1 ZINC000033972992    0.1200
50     H50    -0.8642  -10.1994   -9.3017 H        1 ZINC000033972992    0.1200
51     H51    -0.5120   -9.9289  -12.9459 H        1 ZINC000033972992    0.0800
52     H52    -1.4169  -10.6861  -11.6131 H        1 ZINC000033972992    0.0900
53     H53     1.3037   -8.3843  -12.4951 H        1 ZINC000033972992    0.1300
54     H54     3.0522   -7.6788  -10.9127 H        1 ZINC000033972992    0.1300
55     H55     1.6420   -6.3619   -2.4411 H        1 ZINC000033972992    0.2000
56     H56    -0.0051   -1.5034   -4.2598 H        1 ZINC000033972992    0.1400
57     H57    -1.1056   -0.4179   -2.3446 H        1 ZINC000033972992    0.1400
@<TRIPOS>BOND
1     1     2     1
2     1     36    1
3     1     37    1
4     1     38    1
5     2     3     1
6     3     35    ar
7     3     4     ar
8     4     5     ar
9     4     39    1
10    5     6     ar
11    5     40    1
12    6     7     1
13    6     34    ar
14    7     8     1
15    8     33    ar
16    8     9     ar
17    9     10    ar
18    9     41    1
19    10    11    1
20    10    31    ar
21    11    12    1
22    11    13    1
23    12    42    1
24    12    43    1
25    12    44    1
26    13    14    1
27    13    45    1
28    13    46    1
29    14    15    1
30    14    47    1
31    14    48    1
32    15    16    1
33    16    30    ar
34    16    17    ar
35    17    18    ar
36    17    49    1
37    18    19    ar
38    18    50    1
39    19    20    1
40    19    29    ar
41    20    21    1
42    20    51    1
43    20    52    1
44    21    22    1
45    21    27    1
46    21    23    1
47    23    24    1
48    24    25    2
49    24    26    1
50    26    27    1
51    27    28    2
52    29    30    ar
53    29    53    1
54    30    54    1
55    31    32    ar
56    32    33    ar
57    32    55    1
58    34    35    ar
59    34    56    1
60    35    57    1
@<TRIPOS>SUBSTRUCTURE
1   ZINC000033972992 1     RESIDUE    1   A     ZIN   1
