@<TRIPOS>MOLECULE
ZINC000098210304
  40   42    0    0    0
SMALL
USER_CHARGES
NO_NAME
@<TRIPOS>ATOM
    1 C1       -0.0173     1.4248     0.0099 C.3    1 <0>       0.0200
    2 O2        0.0021    -0.0041     0.0020 O.3    1 <0>      -0.3100
    3 C3        0.6060    -0.6074    -1.0562 C.ar   1 <0>       0.1600
    4 C4        1.1750     0.1751    -2.0661 C.ar   1 <0>      -0.1700
    5 C5        1.7859    -0.3974    -3.1367 C.ar   1 <0>      -0.0400
    6 C6        1.8529    -1.8016    -3.2400 C.ar   1 <0>       0.1200
    7 N7        2.4504    -2.3723    -4.2861 N.ar   1 <0>      -0.4200
    8 C8        2.5318    -3.6954    -4.4152 C.ar   1 <0>       0.1300
    9 C9        3.1716    -4.2651    -5.5353 C.ar   1 <0>      -0.0600
   10 C10       3.2486    -5.6166    -5.6557 C.ar   1 <0>      -0.1000
   11 C11       2.7031    -6.4595    -4.6860 C.ar   1 <0>      -0.0100
   12 Cl12      2.8246    -8.1803    -4.8796 Cl     1 <0>      -0.0500
   13 C13       2.0772    -5.9487    -3.5898 C.ar   1 <0>      -0.1100
   14 C14       1.9782    -4.5561    -3.4309 C.ar   1 <0>      -0.0300
   15 C15       1.3365    -3.9997    -2.3063 C.ar   1 <0>      -0.0900
   16 S16       0.6346    -5.0261    -1.0579 S.3    1 <0>      -0.0800
   17 C17       2.0596    -5.1994     0.0445 C.3    1 <0>      -0.1200
   18 C18       1.6774    -6.0771     1.2380 C.3    1 <0>      -0.1400
   19 C19       2.8820    -6.2236     2.1698 C.3    1 <0>       0.0000
   20 N20       2.5150    -7.0663     3.3158 N.4    1 <0>      -0.6400
   21 H21       1.7517    -6.6378     3.8176 H      1 <0>       0.4400
   22 H22       2.2317    -7.9771     2.9865 H      1 <0>       0.4400
   23 H23       3.3094    -7.1630     3.9303 H      1 <0>       0.4400
   24 C24       1.2752    -2.5940    -2.2137 C.ar   1 <0>      -0.0100
   25 C25       0.6554    -1.9704    -1.1184 C.ar   1 <0>      -0.1800
   26 H26       1.0053     1.8021     0.0021 H      1 <0>       0.0600
   27 H27      -0.5445     1.7859    -0.8732 H      1 <0>       0.0600
   28 H28      -0.5275     1.7763     0.9067 H      1 <0>       0.1100
   29 H29       1.1278     1.2517    -1.9943 H      1 <0>       0.1500
   30 H30       2.2191     0.2228    -3.9075 H      1 <0>       0.1500
   31 H31       3.5992    -3.6288    -6.2959 H      1 <0>       0.1500
   32 H32       3.7398    -6.0457    -6.5165 H      1 <0>       0.1500
   33 H33       1.6590    -6.6108    -2.8461 H      1 <0>       0.1500
   34 H34       2.8842    -5.6624    -0.4976 H      1 <0>       0.1000
   35 H35       2.3656    -4.2156     0.4002 H      1 <0>       0.1000
   36 H36       0.8528    -5.6142     1.7801 H      1 <0>       0.1000
   37 H37       1.3714    -7.0609     0.8823 H      1 <0>       0.1000
   38 H38       3.7065    -6.6866     1.6277 H      1 <0>       0.1400
   39 H39       3.1879    -5.2398     2.5256 H      1 <0>       0.1400
   40 H40       0.2170    -2.5659    -0.3313 H      1 <0>       0.1500
@<TRIPOS>BOND
   1    1    2 1
   2    1   26 1
   3    1   27 1
   4    1   28 1
   5    2    3 1
   6    3   25 ar
   7    3    4 ar
   8    4    5 ar
   9    4   29 1
  10    5    6 ar
  11    5   30 1
  12    6   24 ar
  13    6    7 ar
  14    7    8 ar
  15    8   14 ar
  16    8    9 ar
  17    9   10 ar
  18    9   31 1
  19   10   11 ar
  20   10   32 1
  21   11   12 1
  22   11   13 ar
  23   13   14 ar
  24   13   33 1
  25   14   15 ar
  26   15   16 1
  27   15   24 ar
  28   16   17 1
  29   17   18 1
  30   17   34 1
  31   17   35 1
  32   18   19 1
  33   18   36 1
  34   18   37 1
  35   19   20 1
  36   19   38 1
  37   19   39 1
  38   20   21 1
  39   20   22 1
  40   20   23 1
  41   24   25 ar
  42   25   40 1
