@<TRIPOS>MOLECULE
ZINC000001531550
  42   41    0    0    0
SMALL
USER_CHARGES
NO_NAME
@<TRIPOS>ATOM
    1 C1        4.5251     1.3425    -2.8796 C.2    1 <0>      -0.1800
    2 C2        3.7548     1.3788    -1.8206 C.2    1 <0>      -0.1900
    3 C3        2.6078     0.4101    -1.6896 C.3    1 <0>       0.1600
    4 C4        1.2938     1.1867    -1.5839 C.3    1 <0>      -0.1400
    5 O5        2.5681    -0.4392    -2.8382 O.3    1 <0>      -0.5500
    6 C6        2.7999    -0.4408    -0.4326 C.3    1 <0>      -0.1300
    7 C7        1.6355    -1.4243    -0.2996 C.3    1 <0>      -0.0900
    8 C8        1.8247    -2.2623     0.9385 C.2    1 <0>      -0.1700
    9 C9        1.7736    -3.5689     0.8592 C.2    1 <0>      -0.1300
   10 C10       1.3793    -4.2303    -0.4362 C.3    1 <0>      -0.1200
   11 C11       2.1092    -4.4106     2.0634 C.3    1 <0>      -0.0800
   12 C12       0.8224    -4.7704     2.8087 C.3    1 <0>      -0.0900
   13 C13       1.1579    -5.6121     4.0129 C.2    1 <0>      -0.1700
   14 C14       0.8591    -5.1847     5.2146 C.2    1 <0>      -0.1300
   15 C15       0.3114    -3.7937     5.4051 C.3    1 <0>      -0.1200
   16 C16       1.0630    -6.0840     6.4065 C.3    1 <0>      -0.1200
   17 H17       4.3382     0.6184    -3.6587 H      1 <0>       0.1000
   18 H18       5.3443     2.0397    -2.9755 H      1 <0>       0.1000
   19 H19       3.9416     2.1029    -1.0415 H      1 <0>       0.1100
   20 H20       1.1570     1.7928    -2.4794 H      1 <0>       0.0600
   21 H21       0.4643     0.4860    -1.4891 H      1 <0>       0.0700
   22 H22       1.3241     1.8345    -0.7078 H      1 <0>       0.0700
   23 H23       3.3705    -0.9630    -2.9680 H      1 <0>       0.3700
   24 H24       3.7361    -0.9940    -0.5079 H      1 <0>       0.0700
   25 H25       2.8303     0.2070     0.4435 H      1 <0>       0.0700
   26 H26       0.6994    -0.8710    -0.2243 H      1 <0>       0.0700
   27 H27       1.6052    -2.0721    -1.1757 H      1 <0>       0.0800
   28 H28       2.0025    -1.7857     1.8912 H      1 <0>       0.1100
   29 H29       2.2543    -4.3183    -1.0803 H      1 <0>       0.0700
   30 H30       0.9785    -5.2228    -0.2302 H      1 <0>       0.0600
   31 H31       0.6200    -3.6282    -0.9352 H      1 <0>       0.0700
   32 H32       2.6094    -5.3237     1.7405 H      1 <0>       0.0700
   33 H33       2.7684    -3.8501     2.7262 H      1 <0>       0.0700
   34 H34       0.3221    -3.8574     3.1316 H      1 <0>       0.0700
   35 H35       0.1631    -5.3309     2.1459 H      1 <0>       0.0700
   36 H36       1.6447    -6.5676     3.8851 H      1 <0>       0.1100
   37 H37      -0.7661    -3.8018     5.2404 H      1 <0>       0.0700
   38 H38       0.5212    -3.4565     6.4202 H      1 <0>       0.0600
   39 H39       0.7829    -3.1169     4.6926 H      1 <0>       0.0700
   40 H40       1.4632    -7.0420     6.0746 H      1 <0>       0.0600
   41 H41       1.7645    -5.6172     7.0981 H      1 <0>       0.0600
   42 H42       0.1090    -6.2432     6.9091 H      1 <0>       0.0700
@<TRIPOS>BOND
   1    1    2 2
   2    1   17 1
   3    1   18 1
   4    2    3 1
   5    2   19 1
   6    3    4 1
   7    3    5 1
   8    3    6 1
   9    4   20 1
  10    4   21 1
  11    4   22 1
  12    5   23 1
  13    6    7 1
  14    6   24 1
  15    6   25 1
  16    7    8 1
  17    7   26 1
  18    7   27 1
  19    8    9 2
  20    8   28 1
  21    9   10 1
  22    9   11 1
  23   10   29 1
  24   10   30 1
  25   10   31 1
  26   11   12 1
  27   11   32 1
  28   11   33 1
  29   12   13 1
  30   12   34 1
  31   12   35 1
  32   13   14 2
  33   13   36 1
  34   14   15 1
  35   14   16 1
  36   15   37 1
  37   15   38 1
  38   15   39 1
  39   16   40 1
  40   16   41 1
  41   16   42 1
