@<TRIPOS>MOLECULE
ZINC000000895707
35    37    1     0     0
SMALL
USER_CHARGES
@<TRIPOS>ATOM
1      C1     -0.0173    1.4248    0.0099 C.3      1 ZINC000000895707    0.0300
2      O2      0.0021   -0.0041    0.0020 O.3      1 ZINC000000895707   -0.3200
3      C3      0.6258   -0.6184    1.0415 C.ar     1 ZINC000000895707    0.1400
4      C4      1.2022    0.1384    2.0513 C.ar     1 ZINC000000895707   -0.2100
5      C5      1.8353   -0.4884    3.1070 C.ar     1 ZINC000000895707   -0.0600
6      C6      1.8951   -1.8688    3.1577 C.ar     1 ZINC000000895707   -0.1300
7      C7      2.5867   -2.5500    4.3104 C.3      1 ZINC000000895707    0.1500
8      H8      3.2637   -1.8468    4.7953 H        1 ZINC000000895707    0.0900
9      C9      1.5388   -3.0339    5.3233 C.3      1 ZINC000000895707   -0.1900
10     C10     2.2861   -3.7394    6.4406 C.2      1 ZINC000000895707    0.4000
11     O11     1.9683   -3.6057    7.6044 O.2      1 ZINC000000895707   -0.4300
12     C12     3.4122   -4.5908    6.0417 C.ar     1 ZINC000000895707   -0.2900
13     C13     4.0004   -5.4763    6.9581 C.ar     1 ZINC000000895707    0.2200
14     O14     3.5244   -5.5641    8.2250 O.3      1 ZINC000000895707   -0.4800
15     C15     5.0692   -6.2593    6.5593 C.ar     1 ZINC000000895707   -0.2200
16     C16     5.5523   -6.1679    5.2600 C.ar     1 ZINC000000895707    0.2000
17     O17     6.6028   -6.9370    4.8787 O.3      1 ZINC000000895707   -0.4900
18     C18     4.9704   -5.2974    4.3469 C.ar     1 ZINC000000895707   -0.2000
19     C19     3.8992   -4.5072    4.7238 C.ar     1 ZINC000000895707    0.2100
20     O20     3.3289   -3.6692    3.8264 O.3      1 ZINC000000895707   -0.3000
21     C21     1.3210   -2.6254    2.1528 C.ar     1 ZINC000000895707   -0.0500
22     C22     0.6822   -2.0034    1.0976 C.ar     1 ZINC000000895707   -0.1500
23     H23     1.0053    1.8021    0.0021 H        1 ZINC000000895707    0.0600
24     H24    -0.5445    1.7859   -0.8732 H        1 ZINC000000895707    0.1000
25     H25    -0.5275    1.7763    0.9067 H        1 ZINC000000895707    0.0600
26     H26     1.1564    1.2167    2.0118 H        1 ZINC000000895707    0.1300
27     H27     2.2842    0.1003    3.8934 H        1 ZINC000000895707    0.1300
28     H28     0.9893   -2.1822    5.7243 H        1 ZINC000000895707    0.1100
29     H29     0.8498   -3.7277    4.8417 H        1 ZINC000000895707    0.1200
30     H30     2.8269   -6.2242    8.3382 H        1 ZINC000000895707    0.4000
31     H31     5.5285   -6.9420    7.2589 H        1 ZINC000000895707    0.1500
32     H32     6.3496   -7.7969    4.5159 H        1 ZINC000000895707    0.4000
33     H33     5.3555   -5.2373    3.3397 H        1 ZINC000000895707    0.1500
34     H34     1.3687   -3.7035    2.1948 H        1 ZINC000000895707    0.1400
35     H35     0.2339   -2.5948    0.3129 H        1 ZINC000000895707    0.1400
@<TRIPOS>BOND
1     1     2     1
2     1     23    1
3     1     24    1
4     1     25    1
5     2     3     1
6     3     22    ar
7     3     4     ar
8     4     5     ar
9     4     26    1
10    5     6     ar
11    5     27    1
12    6     7     1
13    6     21    ar
14    7     8     1
15    7     20    1
16    7     9     1
17    9     10    1
18    9     28    1
19    9     29    1
20    10    11    2
21    10    12    1
22    12    19    ar
23    12    13    ar
24    13    14    1
25    13    15    ar
26    14    30    1
27    15    16    ar
28    15    31    1
29    16    17    1
30    16    18    ar
31    17    32    1
32    18    19    ar
33    18    33    1
34    19    20    1
35    21    22    ar
36    21    34    1
37    22    35    1
@<TRIPOS>SUBSTRUCTURE
1   ZINC000000895707 1     RESIDUE    1   A     ZIN   1
