@<TRIPOS>MOLECULE
ZINC000123747593
32    34    1     0     0
SMALL
USER_CHARGES
@<TRIPOS>ATOM
1      O1      0.0021   -0.0041    0.0020 O.2      1 ZINC000123747593   -0.4700
2      C2     -0.0145    1.2144    0.0087 C.2      1 ZINC000123747593    0.4500
3      C3      1.2424    1.9631    0.0007 C.2      1 ZINC000123747593   -0.2300
4      C4      2.4210    1.3038   -0.0141 C.2      1 ZINC000123747593   -0.0100
5      C5      3.6837    2.0559   -0.0221 C.ar     1 ZINC000123747593   -0.0900
6      C6      3.6675    3.4557   -0.0086 C.ar     1 ZINC000123747593   -0.0800
7      C7      4.8530    4.1553   -0.0162 C.ar     1 ZINC000123747593   -0.1500
8      C8      6.0648    3.4742   -0.0377 C.ar     1 ZINC000123747593    0.1200
9      O9      7.2310    4.1689   -0.0452 O.3      1 ZINC000123747593   -0.5000
10     C10     6.0864    2.0842   -0.0512 C.ar     1 ZINC000123747593   -0.1500
11     C11     4.9067    1.3749   -0.0374 C.ar     1 ZINC000123747593   -0.0800
12     C12    -1.2980    1.9324    0.0187 C.2      1 ZINC000123747593   -0.2400
13     C13    -1.4785    3.2848    0.0210 C.2      1 ZINC000123747593    0.1400
14     N14    -2.8045    3.5698    0.0310 N.pl3    1 ZINC000123747593   -0.5600
15     C15    -3.5481    2.4107    0.0357 C.ar     1 ZINC000123747593    0.2700
16     N16    -4.8532    2.1746    0.0453 N.ar     1 ZINC000123747593   -0.4900
17     C17    -5.3344    0.9492    0.0480 C.ar     1 ZINC000123747593    0.1400
18     C18    -4.5003   -0.1569    0.0416 C.ar     1 ZINC000123747593   -0.1900
19     C19    -3.1289    0.0283    0.0315 C.ar     1 ZINC000123747593   -0.0200
20     C20    -2.6442    1.3344    0.0218 C.ar     1 ZINC000123747593   -0.1100
21     H21     1.2278    3.0430    0.0067 H        1 ZINC000123747593    0.1300
22     H22     2.4357    0.2239   -0.0200 H        1 ZINC000123747593    0.1400
23     H23     2.7267    3.9857    0.0074 H        1 ZINC000123747593    0.1300
24     H24     4.8417    5.2352   -0.0059 H        1 ZINC000123747593    0.1300
25     H25     7.5797    4.3615    0.8359 H        1 ZINC000123747593    0.4000
26     H26     7.0305    1.5599   -0.0679 H        1 ZINC000123747593    0.1300
27     H27     4.9246    0.2951   -0.0478 H        1 ZINC000123747593    0.1300
28     H28    -0.6853    4.0177    0.0159 H        1 ZINC000123747593    0.1900
29     H29    -3.1771    4.4654    0.0343 H        1 ZINC000123747593    0.4300
30     H30    -6.4044    0.8028    0.0559 H        1 ZINC000123747593    0.1700
31     H31    -4.9161   -1.1536    0.0447 H        1 ZINC000123747593    0.1400
32     H32    -2.4542   -0.8150    0.0263 H        1 ZINC000123747593    0.1400
@<TRIPOS>BOND
1     1     2     2
2     2     3     1
3     2     12    1
4     3     4     2
5     3     21    1
6     4     5     1
7     4     22    1
8     5     11    ar
9     5     6     ar
10    6     7     ar
11    6     23    1
12    7     8     ar
13    7     24    1
14    8     9     1
15    8     10    ar
16    9     25    1
17    10    11    ar
18    10    26    1
19    11    27    1
20    12    20    1
21    12    13    2
22    13    14    1
23    13    28    1
24    14    15    1
25    14    29    1
26    15    20    ar
27    15    16    ar
28    16    17    ar
29    17    18    ar
30    17    30    1
31    18    19    ar
32    18    31    1
33    19    20    ar
34    19    32    1
@<TRIPOS>SUBSTRUCTURE
1   ZINC000123747593 1     RESIDUE    1   A     ZIN   1
