@<TRIPOS>MOLECULE
ZINC000145579292
65    70    1     0     0
SMALL
USER_CHARGES
@<TRIPOS>ATOM
1      C1     -1.5701    1.4458   -0.7025 C.3      1 ZINC000145579292    0.0300
2      O2     -0.9768    0.1730   -0.4378 O.3      1 ZINC000145579292   -0.3100
3      C3     -0.3791   -0.4595   -1.4839 C.ar     1 ZINC000145579292    0.0900
4      C4     -0.3605    0.1362   -2.7343 C.ar     1 ZINC000145579292   -0.1500
5      C5      0.2457   -0.5052   -3.7982 C.ar     1 ZINC000145579292   -0.1100
6      C6      0.8378   -1.7477   -3.6156 C.ar     1 ZINC000145579292    0.1500
7      N7      1.4516   -2.3956   -4.6936 N.pl3    1 ZINC000145579292   -0.6300
8      C8      2.0873   -1.6540   -5.6771 C.2      1 ZINC000145579292    0.4900
9      N9      2.2099   -0.3496   -5.5463 N.2      1 ZINC000145579292   -0.5300
10     C10     2.8227    0.3895   -6.4877 C.2      1 ZINC000145579292    0.1700
11     C11     2.9401    1.8566   -6.3013 C.ar     1 ZINC000145579292   -0.0400
12     C12     3.5680    2.6359   -7.2724 C.ar     1 ZINC000145579292   -0.0700
13     C13     3.6783    4.0024   -7.1016 C.ar     1 ZINC000145579292   -0.1200
14     C14     3.1688    4.6056   -5.9696 C.ar     1 ZINC000145579292   -0.0700
15     C15     2.5380    3.8360   -4.9893 C.ar     1 ZINC000145579292   -0.1400
16     C16     1.9925    4.4825   -3.7770 C.2      1 ZINC000145579292    0.5600
17     O17     1.4438    3.8112   -2.9248 O.2      1 ZINC000145579292   -0.5000
18     N18     2.1034    5.8160   -3.6164 N.am     1 ZINC000145579292   -0.6700
19     C19     1.6812    6.4137   -2.4267 C.ar     1 ZINC000145579292    0.1600
20     C20     1.8174    5.7331   -1.2219 C.ar     1 ZINC000145579292   -0.1200
21     C21     1.4018    6.3201   -0.0466 C.ar     1 ZINC000145579292   -0.0600
22     C22     0.8439    7.5997   -0.0663 C.ar     1 ZINC000145579292   -0.0300
23     C23     0.3974    8.2325    1.1929 C.2      1 ZINC000145579292    0.2500
24     N24     0.4760    7.6997    2.3923 N.2      1 ZINC000145579292   -0.4700
25     C25    -0.0225    8.5580    3.2902 C.2      1 ZINC000145579292   -0.0200
26     C26    -0.4283    9.6667    2.6392 C.2      1 ZINC000145579292   -0.0500
27     N27    -0.1613    9.4718    1.3100 N.pl3    1 ZINC000145579292   -0.5700
28     C28     0.7088    8.2807   -1.2776 C.ar     1 ZINC000145579292   -0.0900
29     C29     1.1307    7.6904   -2.4490 C.ar     1 ZINC000145579292   -0.1400
30     C30     2.4189    2.4580   -5.1601 C.ar     1 ZINC000145579292   -0.0100
31     C31     3.3366   -0.1852   -7.6069 C.2      1 ZINC000145579292   -0.0500
32     N32     3.2329   -1.5382   -7.7865 N.pl3    1 ZINC000145579292   -0.3300
33     C33     3.6343   -2.3871   -8.7719 C.2      1 ZINC000145579292   -0.0600
34     C34     3.2532   -3.6335   -8.4041 C.2      1 ZINC000145579292    0.0300
35     N35     2.6341   -3.5575   -7.2253 N.2      1 ZINC000145579292   -0.4600
36     C36     2.6139   -2.2977   -6.8263 C.2      1 ZINC000145579292    0.1400
37     C37     0.8213   -2.3474   -2.3629 C.ar     1 ZINC000145579292   -0.2000
38     C38     0.2185   -1.7025   -1.2962 C.ar     1 ZINC000145579292    0.1200
39     O39     0.2015   -2.2875   -0.0687 O.3      1 ZINC000145579292   -0.3000
40     C40     0.8244   -3.5683    0.0483 C.3      1 ZINC000145579292    0.0300
41     H41    -0.8064    2.1346   -1.0636 H        1 ZINC000145579292    0.0600
42     H42    -2.3463    1.3345   -1.4595 H        1 ZINC000145579292    0.0500
43     H43    -2.0101    1.8392    0.2139 H        1 ZINC000145579292    0.1000
44     H44    -0.8206    1.1026   -2.8782 H        1 ZINC000145579292    0.1400
45     H45     0.2586   -0.0395   -4.7725 H        1 ZINC000145579292    0.1400
46     H46     1.4322   -3.3636   -4.7525 H        1 ZINC000145579292    0.4300
47     H47     3.9695    2.1700   -8.1602 H        1 ZINC000145579292    0.1300
48     H48     4.1656    4.6011   -7.8569 H        1 ZINC000145579292    0.1400
49     H49     3.2583    5.6742   -5.8413 H        1 ZINC000145579292    0.1300
50     H50     2.4765    6.3607   -4.3271 H        1 ZINC000145579292    0.4100
51     H51     2.2491    4.7433   -1.2074 H        1 ZINC000145579292    0.1400
52     H52     1.5073    5.7907    0.8888 H        1 ZINC000145579292    0.1400
53     H53    -0.0886    8.3908    4.3551 H        1 ZINC000145579292    0.1700
54     H54    -0.8755   10.5441    3.0825 H        1 ZINC000145579292    0.1800
55     H55    -0.3406   10.0945    0.5881 H        1 ZINC000145579292    0.4200
56     H56     0.2773    9.2706   -1.2961 H        1 ZINC000145579292    0.1200
57     H57     1.0269    8.2168   -3.3863 H        1 ZINC000145579292    0.1300
58     H58     1.9317    1.8582   -4.4055 H        1 ZINC000145579292    0.1500
59     H59     3.8252    0.4241   -8.3528 H        1 ZINC000145579292    0.1700
60     H60     4.1578   -2.1172   -9.6772 H        1 ZINC000145579292    0.1900
61     H61     3.4220   -4.5374   -8.9705 H        1 ZINC000145579292    0.1900
62     H62     1.2816   -3.3139   -2.2202 H        1 ZINC000145579292    0.1400
63     H63     1.8770   -3.4864   -0.2225 H        1 ZINC000145579292    0.0500
64     H64     0.7401   -3.9207    1.0763 H        1 ZINC000145579292    0.1000
65     H65     0.3312   -4.2745   -0.6196 H        1 ZINC000145579292    0.0500
@<TRIPOS>BOND
1     1     2     1
2     1     41    1
3     1     42    1
4     1     43    1
5     2     3     1
6     3     38    ar
7     3     4     ar
8     4     5     ar
9     4     44    1
10    5     6     ar
11    5     45    1
12    6     7     1
13    6     37    ar
14    7     8     1
15    7     46    1
16    8     36    1
17    8     9     2
18    9     10    1
19    10    11    1
20    10    31    2
21    11    30    ar
22    11    12    ar
23    12    13    ar
24    12    47    1
25    13    14    ar
26    13    48    1
27    14    15    ar
28    14    49    1
29    15    16    1
30    15    30    ar
31    16    17    2
32    16    18    am
33    18    19    1
34    18    50    1
35    19    29    ar
36    19    20    ar
37    20    21    ar
38    20    51    1
39    21    22    ar
40    21    52    1
41    22    23    1
42    22    28    ar
43    23    27    1
44    23    24    2
45    24    25    1
46    25    26    2
47    25    53    1
48    26    27    1
49    26    54    1
50    27    55    1
51    28    29    ar
52    28    56    1
53    29    57    1
54    30    58    1
55    31    32    1
56    31    59    1
57    32    36    1
58    32    33    1
59    33    34    2
60    33    60    1
61    34    35    1
62    34    61    1
63    35    36    2
64    37    38    ar
65    37    62    1
66    38    39    1
67    39    40    1
68    40    63    1
69    40    64    1
70    40    65    1
@<TRIPOS>SUBSTRUCTURE
1   ZINC000145579292 1     RESIDUE    1   A     ZIN   1
