@<TRIPOS>MOLECULE
ZINC000003808299
  40   43    0    0    0
SMALL
USER_CHARGES
NO_NAME
@<TRIPOS>ATOM
    1 C1       -0.0178     1.4608     0.0101 C.3    1 <0>       0.0900
    2 N2        0.0021    -0.0041     0.0020 N.pl3  1 <0>      -0.3900
    3 N3        0.0056    -0.6906    -1.2204 N.pl3  1 <0>      -0.4000
    4 H4       -0.0049    -0.1590    -2.0317 H      1 <0>       0.4500
    5 C5        0.0224    -1.9933    -1.3528 C.cat  1 <0>       0.6200
    6 N6        0.0253    -2.5801    -2.6138 N.pl3  1 <0>      -0.7800
    7 C7        0.0387    -2.8237    -0.1347 C.2    1 <0>      -0.2300
    8 C8        0.0568    -4.1121     0.2556 C.2    1 <0>       0.2100
    9 N9        0.0641    -4.1853     1.6390 N.pl3  1 <0>      -0.4400
   10 C10       0.0834    -5.4337     2.4054 C.3    1 <0>       0.3000
   11 H11       0.6821    -5.3187     3.3090 H      1 <0>       0.1400
   12 O12       0.5865    -6.5189     1.5969 O.3    1 <0>      -0.3500
   13 C13       0.1157    -7.7394     2.1928 C.3    1 <0>       0.0500
   14 H14       0.8609    -8.1232     2.8895 H      1 <0>       0.1100
   15 C15      -0.1609    -8.7773     1.1033 C.3    1 <0>       0.0800
   16 O16       1.0686    -9.1513     0.4785 O.3    1 <0>      -0.5600
   17 C17      -1.1861    -7.4081     2.9479 C.3    1 <0>       0.0500
   18 H18      -2.0279    -7.9452     2.5109 H      1 <0>       0.0900
   19 O19      -1.0555    -7.7283     4.3344 O.3    1 <0>      -0.5400
   20 C20      -1.3583    -5.8794     2.7590 C.3    1 <0>       0.0800
   21 H21      -2.0418    -5.6635     1.9379 H      1 <0>       0.0900
   22 O22      -1.8068    -5.2635     3.9680 O.3    1 <0>      -0.5200
   23 C23       0.0508    -2.9377     2.1912 C.ar   1 <0>       0.4000
   24 N24       0.0493    -2.3363     3.3850 N.ar   1 <0>      -0.5100
   25 C25       0.0327    -1.0173     3.4564 C.ar   1 <0>       0.3800
   26 N26       0.0162    -0.1853     2.4196 N.ar   1 <0>      -0.5400
   27 C27       0.0227    -0.6887     1.1907 C.ar   1 <0>       0.4800
   28 C28       0.0345    -2.0695     1.1165 C.ar   1 <0>      -0.2800
   29 H29       1.0048     1.8381     0.0023 H      1 <0>       0.0900
   30 H30      -0.5450     1.8219    -0.8730 H      1 <0>       0.0900
   31 H31      -0.5280     1.8123     0.9069 H      1 <0>       0.1300
   32 H32       0.0148    -2.0232    -3.4079 H      1 <0>       0.4300
   33 H33       0.0378    -3.5463    -2.6991 H      1 <0>       0.4500
   34 H34       0.0642    -4.9621    -0.4106 H      1 <0>       0.2100
   35 H35      -0.6243    -9.6574     1.5491 H      1 <0>       0.0700
   36 H36      -0.8325    -8.3514     0.3578 H      1 <0>       0.0600
   37 H37       0.9689    -9.8082    -0.2241 H      1 <0>       0.3900
   38 H38      -0.8882    -8.6648     4.5077 H      1 <0>       0.3900
   39 H39      -2.6674    -5.5800     4.2749 H      1 <0>       0.4000
   40 H40       0.0320    -0.5767     4.4425 H      1 <0>       0.2200
@<TRIPOS>BOND
   1    1    2 1
   2    1   29 1
   3    1   30 1
   4    1   31 1
   5    2   27 1
   6    2    3 1
   7    3    4 1
   8    3    5 ar
   9    5    6 ar
  10    5    7 1
  11    6   32 1
  12    6   33 1
  13    7   28 1
  14    7    8 2
  15    8    9 1
  16    8   34 1
  17    9   10 1
  18    9   23 1
  19   10   11 1
  20   10   20 1
  21   10   12 1
  22   12   13 1
  23   13   14 1
  24   13   15 1
  25   13   17 1
  26   15   16 1
  27   15   35 1
  28   15   36 1
  29   16   37 1
  30   17   18 1
  31   17   19 1
  32   17   20 1
  33   19   38 1
  34   20   21 1
  35   20   22 1
  36   22   39 1
  37   23   28 ar
  38   23   24 ar
  39   24   25 ar
  40   25   26 ar
  41   25   40 1
  42   26   27 ar
  43   27   28 ar
