@<TRIPOS>MOLECULE
ZINC000000020220
42    45    1     0     0
SMALL
USER_CHARGES
@<TRIPOS>ATOM
1      O1      0.0022   -0.0041    0.0233 O.co2    1 ZINC000000020220   -0.7000
2      C2     -0.0144    1.2199    0.0240 C.2      1 ZINC000000020220    0.5300
3      O3      1.0372    1.8464    0.0177 O.co2    1 ZINC000000020220   -0.6600
4      C4     -1.2942    1.9358    0.0262 C.2      1 ZINC000000020220   -0.2800
5      C5     -2.4881    1.2402    0.0334 C.2      1 ZINC000000020220    0.1400
6      N6     -3.6740    1.8604    0.0356 N.pl3    1 ZINC000000020220   -0.4600
7      C7     -4.8915    1.0457    0.0428 C.3      1 ZINC000000020220    0.0400
8      C8     -4.7474   -0.4429   -0.2801 C.3      1 ZINC000000020220   -0.1800
9      C9     -5.0380    0.0041    1.1540 C.3      1 ZINC000000020220   -0.1800
10     C10    -3.7987    3.2342    0.0319 C.ar     1 ZINC000000020220    0.2300
11     C11    -5.0552    3.8277    0.0354 C.ar     1 ZINC000000020220   -0.1700
12     C12    -5.1648    5.2091    0.0320 C.ar     1 ZINC000000020220    0.1100
13     N13    -6.4249    5.8021    0.0355 N.3      1 ZINC000000020220   -0.4800
14     C14    -6.3189    7.2650   -0.0576 C.3      1 ZINC000000020220    0.0100
15     C15    -7.7222    7.8728   -0.1108 C.3      1 ZINC000000020220   -0.0100
16     N16    -8.4660    7.4945    1.0980 N.4      1 ZINC000000020220   -0.5100
17     H17    -7.9748    7.8291    1.9134 H        1 ZINC000000020220    0.4300
18     H18    -9.3870    7.9054    1.0684 H        1 ZINC000000020220    0.4300
19     C19    -8.5849    6.0320    1.1642 C.3      1 ZINC000000020220    0.0000
20     C20    -7.1887    5.4089    1.2280 C.3      1 ZINC000000020220    0.0200
21     C21    -4.0212    6.0118    0.0255 C.ar     1 ZINC000000020220    0.0000
22     F22    -4.1441    7.3572    0.0231 F        1 ZINC000000020220   -0.1400
23     C23    -2.7793    5.4424    0.0220 C.ar     1 ZINC000000020220   -0.0300
24     C24    -2.6533    4.0513    0.0249 C.ar     1 ZINC000000020220   -0.1800
25     C25    -1.3284    3.4086    0.0270 C.2      1 ZINC000000020220    0.4100
26     O26    -0.3032    4.0675    0.0259 O.2      1 ZINC000000020220   -0.4400
27     H27    -2.4634    0.1604    0.0369 H        1 ZINC000000020220    0.1700
28     H28    -5.7963    1.5494   -0.2972 H        1 ZINC000000020220    0.1400
29     H29    -5.5574   -0.9187   -0.8329 H        1 ZINC000000020220    0.1100
30     H30    -3.7466   -0.8160   -0.4979 H        1 ZINC000000020220    0.1200
31     H31    -4.2285   -0.0749    1.8796 H        1 ZINC000000020220    0.1100
32     H32    -6.0392   -0.1776    1.5447 H        1 ZINC000000020220    0.1100
33     H33    -5.9439    3.2140    0.0404 H        1 ZINC000000020220    0.1500
34     H34    -5.7897    7.6476    0.8152 H        1 ZINC000000020220    0.0900
35     H35    -5.7718    7.5333   -0.9614 H        1 ZINC000000020220    0.1400
36     H36    -7.6460    8.9588   -0.1655 H        1 ZINC000000020220    0.1400
37     H37    -8.2462    7.5006   -0.9911 H        1 ZINC000000020220    0.1400
38     H38    -9.1482    5.7532    2.0548 H        1 ZINC000000020220    0.1400
39     H39    -9.1044    5.6692    0.2774 H        1 ZINC000000020220    0.1400
40     H40    -7.2762    4.3229    1.2621 H        1 ZINC000000020220    0.1300
41     H41    -6.6738    5.7608    2.1220 H        1 ZINC000000020220    0.0700
42     H42    -1.8976    6.0661    0.0173 H        1 ZINC000000020220    0.1600
@<TRIPOS>BOND
1     1     2     ar
2     2     3     ar
3     2     4     1
4     4     25    1
5     4     5     2
6     5     6     1
7     5     27    1
8     6     7     1
9     6     10    1
10    7     9     1
11    7     8     1
12    7     28    1
13    8     9     1
14    8     29    1
15    8     30    1
16    9     31    1
17    9     32    1
18    10    24    ar
19    10    11    ar
20    11    12    ar
21    11    33    1
22    12    13    1
23    12    21    ar
24    13    20    1
25    13    14    1
26    14    15    1
27    14    34    1
28    14    35    1
29    15    16    1
30    15    36    1
31    15    37    1
32    16    17    1
33    16    18    1
34    16    19    1
35    19    20    1
36    19    38    1
37    19    39    1
38    20    40    1
39    20    41    1
40    21    22    1
41    21    23    ar
42    23    24    ar
43    23    42    1
44    24    25    1
45    25    26    2
@<TRIPOS>SUBSTRUCTURE
1   ZINC000000020220 1     RESIDUE    1   A     ZIN   1
