@<TRIPOS>MOLECULE
ZINC000035935457
52    56    1     0     0
SMALL
USER_CHARGES
@<TRIPOS>ATOM
1      C1     -0.0178    1.4648    0.0101 C.3      1 ZINC000035935457   -0.0500
2      N2      0.0021   -0.0041    0.0020 N.4      1 ZINC000035935457   -0.5100
3      H3      0.4744   -0.3295   -0.8281 H        1 ZINC000035935457    0.4300
4      H4      0.4901   -0.3383    0.8195 H        1 ZINC000035935457    0.4300
5      C5     -1.3761   -0.5125    0.0124 C.3      1 ZINC000035935457   -0.0100
6      C6     -1.3553   -2.0424    0.0040 C.3      1 ZINC000035935457   -0.1800
7      C7     -2.7907   -2.5720    0.0149 C.3      1 ZINC000035935457    0.1200
8      N8     -2.7708   -4.0368    0.0068 N.pl3    1 ZINC000035935457   -0.5000
9      C9     -2.7650   -4.8216   -1.1348 C.ar     1 ZINC000035935457    0.1300
10     C10    -2.7441   -6.1697   -0.7458 C.ar     1 ZINC000035935457   -0.0900
11     C11    -2.7343   -7.1765   -1.7107 C.ar     1 ZINC000035935457   -0.0700
12     C12    -2.7452   -6.8405   -3.0514 C.ar     1 ZINC000035935457    0.0900
13     O13    -2.7361   -7.8184   -3.9964 O.3      1 ZINC000035935457   -0.4900
14     C14    -2.7658   -5.5039   -3.4358 C.ar     1 ZINC000035935457   -0.0900
15     C15    -2.7757   -4.5025   -2.4889 C.ar     1 ZINC000035935457   -0.1300
16     C16    -2.7372   -6.1812    0.7263 C.ar     1 ZINC000035935457   -0.0200
17     C17    -2.7493   -4.8314    1.1361 C.ar     1 ZINC000035935457    0.1700
18     C18    -2.7464   -4.5209    2.4895 C.ar     1 ZINC000035935457   -0.1000
19     C19    -2.7311   -5.5330    3.4472 C.ar     1 ZINC000035935457    0.0600
20     C20    -2.7277   -5.1886    4.8874 C.ar     1 ZINC000035935457   -0.0500
21     C21    -1.5193   -5.0072    5.5620 C.ar     1 ZINC000035935457    0.0000
22     Cl22   -0.0147   -5.1849    4.7145 Cl       1 ZINC000035935457   -0.0500
23     C23    -1.5233   -4.6855    6.9052 C.ar     1 ZINC000035935457   -0.1000
24     C24    -2.7213   -4.5432    7.5818 C.ar     1 ZINC000035935457   -0.0800
25     C25    -3.9225   -4.7215    6.9195 C.ar     1 ZINC000035935457   -0.1000
26     C26    -3.9330   -5.0382    5.5751 C.ar     1 ZINC000035935457    0.0000
27     Cl27   -5.4416   -5.2616    4.7457 Cl       1 ZINC000035935457   -0.0500
28     C28    -2.7195   -6.8758    3.0490 C.ar     1 ZINC000035935457   -0.1400
29     C29    -2.7184   -7.2006    1.6794 C.ar     1 ZINC000035935457   -0.0800
30     C30    -2.7056   -8.6746    1.6132 C.2      1 ZINC000035935457    0.5800
31     O31    -2.7011   -9.3391    0.5962 O.2      1 ZINC000035935457   -0.4500
32     N32    -2.6997   -9.1589    2.8682 N.am     1 ZINC000035935457   -0.6800
33     C33    -2.7035   -8.1605    3.7697 C.2      1 ZINC000035935457    0.5800
34     O34    -2.6992   -8.2958    4.9773 O.2      1 ZINC000035935457   -0.4400
35     H35     1.0047    1.8421    0.0024 H        1 ZINC000035935457    0.1300
36     H36    -0.5450    1.8259   -0.8730 H        1 ZINC000035935457    0.1200
37     H37    -0.5280    1.8163    0.9069 H        1 ZINC000035935457    0.1200
38     H38    -1.8863   -0.1610    0.9092 H        1 ZINC000035935457    0.1400
39     H39    -1.9033   -0.1515   -0.8706 H        1 ZINC000035935457    0.1400
40     H40    -0.8451   -2.3939   -0.8928 H        1 ZINC000035935457    0.1000
41     H41    -0.8281   -2.4035    0.8871 H        1 ZINC000035935457    0.1000
42     H42    -3.3009   -2.2204    0.9117 H        1 ZINC000035935457    0.1000
43     H43    -3.3179   -2.2109   -0.8682 H        1 ZINC000035935457    0.1000
44     H44    -2.7179   -8.2142   -1.4118 H        1 ZINC000035935457    0.1500
45     H45    -3.6168   -8.1134   -4.2656 H        1 ZINC000035935457    0.4000
46     H46    -2.7739   -5.2486   -4.4852 H        1 ZINC000035935457    0.1400
47     H47    -2.7920   -3.4680   -2.7987 H        1 ZINC000035935457    0.1300
48     H48    -2.7557   -3.4872    2.8023 H        1 ZINC000035935457    0.1400
49     H49    -0.5890   -4.5453    7.4284 H        1 ZINC000035935457    0.1500
50     H50    -2.7188   -4.2919    8.6322 H        1 ZINC000035935457    0.1500
51     H51    -4.8543   -4.6092    7.4538 H        1 ZINC000035935457    0.1500
52     H52    -2.6911  -10.1024    3.0932 H        1 ZINC000035935457    0.4400
@<TRIPOS>BOND
1     1     2     1
2     1     35    1
3     1     36    1
4     1     37    1
5     2     3     1
6     2     4     1
7     2     5     1
8     5     6     1
9     5     38    1
10    5     39    1
11    6     7     1
12    6     40    1
13    6     41    1
14    7     8     1
15    7     42    1
16    7     43    1
17    8     17    1
18    8     9     1
19    9     15    ar
20    9     10    ar
21    10    11    ar
22    10    16    1
23    11    12    ar
24    11    44    1
25    12    13    1
26    12    14    ar
27    13    45    1
28    14    15    ar
29    14    46    1
30    15    47    1
31    16    29    ar
32    16    17    ar
33    17    18    ar
34    18    19    ar
35    18    48    1
36    19    20    1
37    19    28    ar
38    20    26    ar
39    20    21    ar
40    21    22    1
41    21    23    ar
42    23    24    ar
43    23    49    1
44    24    25    ar
45    24    50    1
46    25    26    ar
47    25    51    1
48    26    27    1
49    28    33    1
50    28    29    ar
51    29    30    1
52    30    31    2
53    30    32    am
54    32    33    am
55    32    52    1
56    33    34    2
@<TRIPOS>SUBSTRUCTURE
1   ZINC000035935457 1     RESIDUE    1   A     ZIN   1
