@<TRIPOS>MOLECULE
ZINC000001641925
  40   42    0    0    0
SMALL
USER_CHARGES
NO_NAME
@<TRIPOS>ATOM
    1 C1       -0.0178     1.4608     0.0101 C.3    1 <0>       0.0800
    2 N2        0.0021    -0.0041     0.0020 N.pl3  1 <0>      -0.4800
    3 C3        0.0085    -0.8054    -1.1023 C.2    1 <0>       0.2300
    4 N4        0.0269    -2.0557    -0.7436 N.2    1 <0>      -0.4500
    5 C5        0.0335    -2.1368     0.6098 C.ar   1 <0>      -0.1600
    6 C6        0.0513    -3.1955     1.5342 C.ar   1 <0>       0.5400
    7 N7        0.0678    -4.5101     1.1028 N.pl3  1 <0>      -0.6900
    8 C8        0.0862    -5.6014     2.0800 C.3    1 <0>       0.1700
    9 C9        0.1018    -6.9233     1.3565 C.ar   1 <0>      -0.1100
   10 C10      -1.0881    -7.5432     1.0238 C.ar   1 <0>      -0.1000
   11 C11      -1.0737    -8.7557     0.3601 C.ar   1 <0>      -0.1200
   12 C12       0.1305    -9.3481     0.0287 C.ar   1 <0>      -0.1100
   13 C13       1.3204    -8.7277     0.3606 C.ar   1 <0>      -0.1200
   14 C14       1.3060    -7.5131     1.0205 C.ar   1 <0>      -0.1000
   15 N15       0.0522    -2.9068     2.8308 N.ar   1 <0>      -0.6200
   16 C16       0.0369    -1.6492     3.2535 C.ar   1 <0>       0.6300
   17 N17       0.0386    -1.4016     4.6163 N.pl3  1 <0>      -0.6900
   18 C18       0.0572    -2.5188     5.5638 C.3    1 <0>       0.1400
   19 C19       0.0553    -1.9749     6.9938 C.3    1 <0>       0.0600
   20 O20      -1.1742    -1.2898     7.2412 O.3    1 <0>      -0.5700
   21 N21       0.0203    -0.6234     2.4178 N.ar   1 <0>      -0.6200
   22 C22       0.0236    -0.8217     1.1034 C.ar   1 <0>       0.3500
   23 H23       1.0048     1.8381     0.0023 H      1 <0>       0.0700
   24 H24      -0.5450     1.8219    -0.8730 H      1 <0>       0.0900
   25 H25      -0.5280     1.8123     0.9069 H      1 <0>       0.0900
   26 H26      -0.0005    -0.4536    -2.1234 H      1 <0>       0.2200
   27 H27       0.0673    -4.7090     0.1535 H      1 <0>       0.4200
   28 H28       0.9772    -5.5171     2.7021 H      1 <0>       0.0800
   29 H29      -0.8025    -5.5416     2.7082 H      1 <0>       0.0800
   30 H30      -2.0289    -7.0804     1.2827 H      1 <0>       0.1200
   31 H31      -2.0034    -9.2404     0.1008 H      1 <0>       0.1200
   32 H32       0.1417   -10.2958    -0.4892 H      1 <0>       0.1200
   33 H33       2.2613    -9.1907     0.1020 H      1 <0>       0.1200
   34 H34       2.2357    -7.0284     1.2798 H      1 <0>       0.1200
   35 H35       0.0276    -0.4884     4.9434 H      1 <0>       0.4200
   36 H36      -0.8250    -3.1402     5.4102 H      1 <0>       0.0700
   37 H37       0.9548    -3.1162     5.4035 H      1 <0>       0.0800
   38 H38       0.1586    -2.8013     7.6970 H      1 <0>       0.0700
   39 H39       0.8883    -1.2835     7.1207 H      1 <0>       0.0500
   40 H40      -1.2451    -0.9179     8.1310 H      1 <0>       0.3800
@<TRIPOS>BOND
   1    1    2 1
   2    1   23 1
   3    1   24 1
   4    1   25 1
   5    2   22 1
   6    2    3 1
   7    3    4 2
   8    3   26 1
   9    4    5 1
  10    5   22 ar
  11    5    6 ar
  12    6    7 1
  13    6   15 ar
  14    7    8 1
  15    7   27 1
  16    8    9 1
  17    8   28 1
  18    8   29 1
  19    9   14 ar
  20    9   10 ar
  21   10   11 ar
  22   10   30 1
  23   11   12 ar
  24   11   31 1
  25   12   13 ar
  26   12   32 1
  27   13   14 ar
  28   13   33 1
  29   14   34 1
  30   15   16 ar
  31   16   17 1
  32   16   21 ar
  33   17   18 1
  34   17   35 1
  35   18   19 1
  36   18   36 1
  37   18   37 1
  38   19   20 1
  39   19   38 1
  40   19   39 1
  41   20   40 1
  42   21   22 ar
