@<TRIPOS>MOLECULE
ZINC000001420826
33    35    1     0     0
SMALL
USER_CHARGES
@<TRIPOS>ATOM
1      C1     -0.2646    1.4578    0.2293 C.3      1 ZINC000001420826    0.0300
2      O2     -0.2497    0.0293    0.1969 O.3      1 ZINC000001420826   -0.3200
3      C3      0.4990   -0.6020    1.1409 C.ar     1 ZINC000001420826    0.0500
4      C4      1.1973    0.1378    2.0789 C.ar     1 ZINC000001420826   -0.1400
5      C5      1.9626   -0.4976    3.0442 C.ar     1 ZINC000001420826   -0.1400
6      C6      2.0367   -1.8723    3.0809 C.ar     1 ZINC000001420826   -0.0600
7      C7      1.3372   -2.6359    2.1405 C.ar     1 ZINC000001420826   -0.1300
8      C8      1.4137   -4.1069    2.1761 C.2      1 ZINC000001420826    0.2200
9      C9      1.0596   -4.7538    3.3217 C.2      1 ZINC000001420826   -0.3100
10     C10     1.1262   -6.1637    3.3739 C.2      1 ZINC000001420826    0.4200
11     O11     0.8166   -6.7762    4.3827 O.2      1 ZINC000001420826   -0.4700
12     C12     1.5849   -6.8673    2.1591 C.ar     1 ZINC000001420826   -0.2200
13     C13     1.6811   -8.2567    2.1198 C.ar     1 ZINC000001420826   -0.0300
14     C14     2.1132   -8.8762    0.9668 C.ar     1 ZINC000001420826   -0.1500
15     C15     2.4503   -8.1229   -0.1476 C.ar     1 ZINC000001420826   -0.0600
16     C16     2.3591   -6.7470   -0.1206 C.ar     1 ZINC000001420826   -0.1400
17     C17     1.9258   -6.1035    1.0317 C.ar     1 ZINC000001420826    0.1400
18     O18     1.8243   -4.7586    1.0769 O.3      1 ZINC000001420826   -0.2200
19     C19     0.5583   -1.9938    1.1672 C.ar     1 ZINC000001420826    0.2400
20     N20    -0.1429   -2.7425    0.2252 N.pl3    1 ZINC000001420826   -0.8600
21     H21     0.7497    1.8348    0.0989 H        1 ZINC000001420826    0.0600
22     H22    -0.8978    1.8329   -0.5748 H        1 ZINC000001420826    0.1000
23     H23    -0.6572    1.7954    1.1885 H        1 ZINC000001420826    0.0600
24     H24     1.1461    1.2164    2.0585 H        1 ZINC000001420826    0.1300
25     H25     2.5042    0.0888    3.7717 H        1 ZINC000001420826    0.1300
26     H26     2.6351   -2.3609    3.8356 H        1 ZINC000001420826    0.1300
27     H27     0.7307   -4.1925    4.1838 H        1 ZINC000001420826    0.1600
28     H28     1.4192   -8.8444    2.9872 H        1 ZINC000001420826    0.1400
29     H29     2.1899   -9.9529    0.9313 H        1 ZINC000001420826    0.1400
30     H30     2.7880   -8.6186   -1.0456 H        1 ZINC000001420826    0.1400
31     H31     2.6239   -6.1704   -0.9946 H        1 ZINC000001420826    0.1400
32     H32    -0.1669   -3.7097    0.2949 H        1 ZINC000001420826    0.4000
33     H33    -0.6072   -2.2969   -0.5005 H        1 ZINC000001420826    0.4100
@<TRIPOS>BOND
1     1     2     1
2     1     21    1
3     1     22    1
4     1     23    1
5     2     3     1
6     3     19    ar
7     3     4     ar
8     4     5     ar
9     4     24    1
10    5     6     ar
11    5     25    1
12    6     7     ar
13    6     26    1
14    7     8     1
15    7     19    ar
16    8     18    1
17    8     9     2
18    9     10    1
19    9     27    1
20    10    11    2
21    10    12    1
22    12    17    ar
23    12    13    ar
24    13    14    ar
25    13    28    1
26    14    15    ar
27    14    29    1
28    15    16    ar
29    15    30    1
30    16    17    ar
31    16    31    1
32    17    18    1
33    19    20    1
34    20    32    1
35    20    33    1
@<TRIPOS>SUBSTRUCTURE
1   ZINC000001420826 1     RESIDUE    1   A     ZIN   1
