@<TRIPOS>MOLECULE
ZINC000068153186
54    57    1     0     0
SMALL
USER_CHARGES
@<TRIPOS>ATOM
1      C1     -0.5863    1.8774   -0.8183 C.3      1 ZINC000068153186   -0.1300
2      C2     -0.3445    0.4290   -0.3885 C.3      1 ZINC000068153186    0.0100
3      C3      0.3309    0.4103    0.9842 C.3      1 ZINC000068153186   -0.1400
4      C4     -1.6822   -0.3094   -0.3089 C.3      1 ZINC000068153186   -0.1500
5      C5      0.5459   -0.2518   -1.3958 C.2      1 ZINC000068153186    0.0700
6      N6      1.7424    0.1280   -1.6884 N.2      1 ZINC000068153186   -0.4500
7      C7      2.3984   -0.5744   -2.5951 C.2      1 ZINC000068153186    0.2000
8      C8      3.7782   -0.2538   -3.0281 C.ar     1 ZINC000068153186   -0.0200
9      C9      4.0508   -0.0126   -4.3749 C.ar     1 ZINC000068153186   -0.1200
10     C10     5.3372    0.2854   -4.7766 C.ar     1 ZINC000068153186   -0.0800
11     C11     6.3601    0.3465   -3.8485 C.ar     1 ZINC000068153186   -0.2300
12     C12     6.1002    0.1086   -2.5047 C.ar     1 ZINC000068153186    0.2500
13     N13     7.1383    0.1719   -1.5694 N.pl3    1 ZINC000068153186   -1.0800
14     S14     8.6775    0.5305   -2.0638 S.o2     1 ZINC000068153186    2.6100
15     O15     9.1046   -0.5597   -2.8691 O.2      1 ZINC000068153186   -1.0100
16     O16     8.6477    1.8736   -2.5266 O.2      1 ZINC000068153186   -1.0100
17     C17     9.7014    0.5209   -0.6299 C.ar     1 ZINC000068153186   -0.7100
18     C18     9.8803    1.6826    0.1012 C.ar     1 ZINC000068153186    0.2300
19     F19     9.2695    2.8244   -0.2842 F        1 ZINC000068153186   -0.1000
20     C20    10.6853    1.6740    1.2279 C.ar     1 ZINC000068153186   -0.2000
21     C21    11.3099    0.5060    1.6226 C.ar     1 ZINC000068153186   -0.0200
22     C22    11.1321   -0.6545    0.8934 C.ar     1 ZINC000068153186   -0.2000
23     C23    10.3230   -0.6496   -0.2304 C.ar     1 ZINC000068153186    0.2200
24     F24    10.1490   -1.7842   -0.9428 F        1 ZINC000068153186   -0.1000
25     C25     4.8084   -0.1864   -2.0898 C.ar     1 ZINC000068153186    0.0700
26     F26     4.5520   -0.4179   -0.7837 F        1 ZINC000068153186   -0.1400
27     C27     1.6777   -1.6314   -3.0974 C.2      1 ZINC000068153186   -0.2200
28     C28     2.1376   -2.5920   -4.1157 C.ar     1 ZINC000068153186    0.3100
29     C29     1.2591   -3.5505   -4.6388 C.ar     1 ZINC000068153186   -0.2900
30     C30     1.7365   -4.4294   -5.5920 C.ar     1 ZINC000068153186    0.1900
31     N31     2.9999   -4.3417   -5.9806 N.ar     1 ZINC000068153186   -0.5800
32     C32     3.8105   -3.4256   -5.4698 C.ar     1 ZINC000068153186    0.5800
33     N33     5.1233   -3.3696   -5.9047 N.pl3    1 ZINC000068153186   -0.8200
34     N34     3.3961   -2.5601   -4.5589 N.ar     1 ZINC000068153186   -0.5300
35     S35     0.1077   -1.6351   -2.2979 S.3      1 ZINC000068153186    0.1500
36     H36     0.3666    2.4035   -0.8750 H        1 ZINC000068153186    0.0700
37     H37    -1.0675    1.8907   -1.7962 H        1 ZINC000068153186    0.0600
38     H38    -1.2304    2.3698   -0.0897 H        1 ZINC000068153186    0.0600
39     H39    -0.3132    0.9028    1.7128 H        1 ZINC000068153186    0.0600
40     H40     0.5031   -0.6215    1.2903 H        1 ZINC000068153186    0.0600
41     H41     1.2838    0.9364    0.9275 H        1 ZINC000068153186    0.0700
42     H42    -2.1633   -0.2961   -1.2869 H        1 ZINC000068153186    0.0600
43     H43    -1.5099   -1.3413   -0.0028 H        1 ZINC000068153186    0.0600
44     H44    -2.3262    0.1830    0.4196 H        1 ZINC000068153186    0.0700
45     H45     3.2550   -0.0595   -5.1036 H        1 ZINC000068153186    0.1000
46     H46     5.5455    0.4714   -5.8199 H        1 ZINC000068153186    0.1100
47     H47     7.3647    0.5795   -4.1693 H        1 ZINC000068153186    0.1000
48     H48    10.8253    2.5803    1.7982 H        1 ZINC000068153186    0.1500
49     H49    11.9379    0.5003    2.5013 H        1 ZINC000068153186    0.1500
50     H50    11.6210   -1.5665    1.2025 H        1 ZINC000068153186    0.1500
51     H51     0.2334   -3.6012   -4.3046 H        1 ZINC000068153186    0.1400
52     H52     1.0865   -5.1806   -6.0156 H        1 ZINC000068153186    0.1700
53     H53     5.4195   -3.9438   -6.6282 H        1 ZINC000068153186    0.4100
54     H54     5.7472   -2.7560   -5.4860 H        1 ZINC000068153186    0.4200
@<TRIPOS>BOND
1     1     2     1
2     1     36    1
3     1     37    1
4     1     38    1
5     2     3     1
6     2     4     1
7     2     5     1
8     3     39    1
9     3     40    1
10    3     41    1
11    4     42    1
12    4     43    1
13    4     44    1
14    5     35    1
15    5     6     2
16    6     7     1
17    7     8     1
18    7     27    2
19    8     25    ar
20    8     9     ar
21    9     10    ar
22    9     45    1
23    10    11    ar
24    10    46    1
25    11    12    ar
26    11    47    1
27    12    13    1
28    12    25    ar
29    13    14    1
30    14    15    2
31    14    16    2
32    14    17    1
33    17    23    ar
34    17    18    ar
35    18    19    1
36    18    20    ar
37    20    21    ar
38    20    48    1
39    21    22    ar
40    21    49    1
41    22    23    ar
42    22    50    1
43    23    24    1
44    25    26    1
45    27    28    1
46    27    35    1
47    28    34    ar
48    28    29    ar
49    29    30    ar
50    29    51    1
51    30    31    ar
52    30    52    1
53    31    32    ar
54    32    33    1
55    32    34    ar
56    33    53    1
57    33    54    1
@<TRIPOS>SUBSTRUCTURE
1   ZINC000068153186 1     RESIDUE    1   A     ZIN   1
