@<TRIPOS>MOLECULE
ZINC000253476156
71    74    1     0     0
SMALL
USER_CHARGES
@<TRIPOS>ATOM
1      C1     -0.0187    1.5258    0.0104 C.3      1 ZINC000253476156   -0.1500
2      C2      0.0021   -0.0041    0.0020 C.3      1 ZINC000253476156   -0.1200
3      C3      0.7182   -0.4975   -1.2568 C.3      1 ZINC000253476156   -0.0600
4      C4      0.7386   -2.0043   -1.2651 C.2      1 ZINC000253476156   -0.1200
5      C5     -0.2773   -2.7336   -1.7412 C.2      1 ZINC000253476156   -0.1800
6      C6     -1.5448   -2.1580   -2.3184 C.3      1 ZINC000253476156   -0.0900
7      S7      0.0541   -4.4019   -1.6082 S.3      1 ZINC000253476156    0.1900
8      C8      1.6232   -4.0814   -0.8823 C.2      1 ZINC000253476156   -0.2800
9      C9      2.5850   -5.1002   -0.4515 C.2      1 ZINC000253476156    0.6100
10     O10     3.6466   -4.7655    0.0405 O.2      1 ZINC000253476156   -0.5300
11     N11     2.2936   -6.4077   -0.6004 N.am     1 ZINC000253476156   -0.7100
12     C12     3.2549   -7.4260   -0.1699 C.3      1 ZINC000253476156    0.1400
13     H13     4.2686   -7.0673   -0.3484 H        1 ZINC000253476156    0.1300
14     C14     3.0226   -8.7140   -0.9624 C.3      1 ZINC000253476156   -0.0800
15     C15     3.3259   -8.4696   -2.4182 C.ar     1 ZINC000253476156   -0.1500
16     C16     2.3284   -8.0318   -3.2775 C.ar     1 ZINC000253476156   -0.0600
17     C17     2.6484   -7.8188   -4.6074 C.ar     1 ZINC000253476156   -0.1500
18     C18     3.9539   -8.0501   -5.0348 C.ar     1 ZINC000253476156    0.1800
19     C19     4.3129   -7.8260   -6.4567 C.ar     1 ZINC000253476156   -0.0200
20     C20     3.3489   -7.3806   -7.3591 C.ar     1 ZINC000253476156   -0.1100
21     C21     3.6855   -7.1728   -8.6819 C.ar     1 ZINC000253476156   -0.0800
22     C22     4.9772   -7.4055   -9.1149 C.ar     1 ZINC000253476156   -0.1800
23     C23     5.9435   -7.8498   -8.2225 C.ar     1 ZINC000253476156    0.1000
24     O24     7.2123   -8.0777   -8.6528 O.3      1 ZINC000253476156   -0.3100
25     C25     7.4810   -7.8393  -10.0359 C.3      1 ZINC000253476156    0.6000
26     F26     7.2166   -6.4991  -10.3381 F        1 ZINC000253476156   -0.1600
27     F27     8.8244   -8.1219  -10.3055 F        1 ZINC000253476156   -0.1300
28     F28     6.6650   -8.6635  -10.8183 F        1 ZINC000253476156   -0.1600
29     C29     5.6161   -8.0549   -6.8925 C.ar     1 ZINC000253476156   -0.0800
30     N30     4.8789   -8.4686   -4.1808 N.ar     1 ZINC000253476156   -0.4700
31     C31     4.6024   -8.6741   -2.9092 C.ar     1 ZINC000253476156    0.1200
32     C32     3.0709   -7.7007    1.3004 C.2      1 ZINC000253476156    0.5100
33     O33     2.2206   -7.1047    1.9270 O.2      1 ZINC000253476156   -0.5000
34     N34     3.8513   -8.6089    1.9190 N.am     1 ZINC000253476156   -0.7300
35     C35     3.6725   -8.8760    3.3483 C.3      1 ZINC000253476156    0.1300
36     H36     2.6204   -8.7897    3.6200 H        1 ZINC000253476156    0.1300
37     C37     4.5254   -7.8974    4.1879 C.3      1 ZINC000253476156   -0.1600
38     C38     5.0530   -8.7946    5.3356 C.3      1 ZINC000253476156    0.0000
39     N39     5.3145  -10.0915    4.6604 N.4      1 ZINC000253476156   -0.5200
40     H40     6.1959  -10.0572    4.1705 H        1 ZINC000253476156    0.4300
41     H41     5.3205  -10.8406    5.3363 H        1 ZINC000253476156    0.4400
42     C42     4.2021  -10.2785    3.7003 C.3      1 ZINC000253476156   -0.0100
43     C43     1.8048   -2.7302   -0.7893 C.2      1 ZINC000253476156   -0.0300
44     H44     1.0039    1.9031    0.0027 H        1 ZINC000253476156    0.0600
45     H45    -0.5459    1.8868   -0.8726 H        1 ZINC000253476156    0.0600
46     H46    -0.5289    1.8773    0.9072 H        1 ZINC000253476156    0.0600
47     H47     0.5293   -0.3651    0.8851 H        1 ZINC000253476156    0.0600
48     H48    -1.0205   -0.3814    0.0098 H        1 ZINC000253476156    0.0600
49     H49     0.1910   -0.1364   -2.1398 H        1 ZINC000253476156    0.0800
50     H50     1.7408   -0.1202   -1.2645 H        1 ZINC000253476156    0.0800
51     H51    -1.4206   -2.0086   -3.3909 H        1 ZINC000253476156    0.0800
52     H52    -2.3706   -2.8470   -2.1408 H        1 ZINC000253476156    0.0700
53     H53    -1.7602   -1.2021   -1.8410 H        1 ZINC000253476156    0.0800
54     H54     1.4475   -6.6744   -0.9925 H        1 ZINC000253476156    0.4000
55     H55     3.6772   -9.4979   -0.5815 H        1 ZINC000253476156    0.1000
56     H56     1.9833   -9.0243   -0.8548 H        1 ZINC000253476156    0.0900
57     H57     1.3247   -7.8614   -2.9170 H        1 ZINC000253476156    0.1400
58     H58     1.8964   -7.4785   -5.3039 H        1 ZINC000253476156    0.1400
59     H59     2.3386   -7.1982   -7.0238 H        1 ZINC000253476156    0.1400
60     H60     2.9373   -6.8279   -9.3802 H        1 ZINC000253476156    0.1400
61     H61     5.2356   -7.2415  -10.1507 H        1 ZINC000253476156    0.1400
62     H62     6.3668   -8.4002   -6.1971 H        1 ZINC000253476156    0.1500
63     H63     5.3812   -9.0150   -2.2431 H        1 ZINC000253476156    0.1600
64     H64     4.5314   -9.0856    1.4179 H        1 ZINC000253476156    0.4100
65     H65     5.3514   -7.5012    3.5972 H        1 ZINC000253476156    0.1000
66     H66     3.9093   -7.0893    4.5822 H        1 ZINC000253476156    0.1200
67     H67     5.9734   -8.3851    5.7519 H        1 ZINC000253476156    0.1400
68     H68     4.2967   -8.9106    6.1119 H        1 ZINC000253476156    0.1400
69     H69     3.4113  -10.8720    4.1592 H        1 ZINC000253476156    0.1500
70     H70     4.5673  -10.7739    2.8007 H        1 ZINC000253476156    0.1400
71     H71     2.6941   -2.2776   -0.3760 H        1 ZINC000253476156    0.1500
@<TRIPOS>BOND
1     1     2     1
2     1     44    1
3     1     45    1
4     1     46    1
5     2     3     1
6     2     47    1
7     2     48    1
8     3     4     1
9     3     49    1
10    3     50    1
11    4     43    1
12    4     5     2
13    5     6     1
14    5     7     1
15    6     51    1
16    6     52    1
17    6     53    1
18    7     8     1
19    8     9     1
20    8     43    2
21    9     10    2
22    9     11    am
23    11    12    1
24    11    54    1
25    12    13    1
26    12    14    1
27    12    32    1
28    14    15    1
29    14    55    1
30    14    56    1
31    15    31    ar
32    15    16    ar
33    16    17    ar
34    16    57    1
35    17    18    ar
36    17    58    1
37    18    19    1
38    18    30    ar
39    19    29    ar
40    19    20    ar
41    20    21    ar
42    20    59    1
43    21    22    ar
44    21    60    1
45    22    23    ar
46    22    61    1
47    23    24    1
48    23    29    ar
49    24    25    1
50    25    26    1
51    25    27    1
52    25    28    1
53    29    62    1
54    30    31    ar
55    31    63    1
56    32    33    2
57    32    34    am
58    34    35    1
59    34    64    1
60    35    36    1
61    35    42    1
62    35    37    1
63    37    38    1
64    37    65    1
65    37    66    1
66    38    39    1
67    38    67    1
68    38    68    1
69    39    40    1
70    39    41    1
71    39    42    1
72    42    69    1
73    42    70    1
74    43    71    1
@<TRIPOS>SUBSTRUCTURE
1   ZINC000253476156 1     RESIDUE    1   A     ZIN   1
