@<TRIPOS>MOLECULE
ZINC000198362743
46    47    1     0     0
SMALL
USER_CHARGES
@<TRIPOS>ATOM
1      C1     -0.0178    1.4608    0.0101 C.3      1 ZINC000198362743    0.0600
2      N2      0.0021   -0.0041    0.0020 N.am     1 ZINC000198362743   -0.6000
3      C3      0.0224   -0.6841    1.1654 C.2      1 ZINC000198362743    0.5100
4      O4      0.0388   -1.8968    1.1588 O.2      1 ZINC000198362743   -0.5300
5      C5      0.0246    0.0623    2.4746 C.3      1 ZINC000198362743    0.1000
6      N6      0.0481   -0.8956    3.5828 N.am     1 ZINC000198362743   -0.7200
7      C7      0.0542   -0.4532    4.8559 C.2      1 ZINC000198362743    0.5500
8      O8      0.0401    0.7419    5.0848 O.2      1 ZINC000198362743   -0.5400
9      C9      0.0777   -1.4106    5.9636 C.2      1 ZINC000198362743   -0.2100
10     C10     0.0838   -0.9682    7.2369 C.2      1 ZINC000198362743   -0.0100
11     C11     0.1074   -1.9307    8.3505 C.ar     1 ZINC000198362743   -0.0700
12     C12     0.1294   -3.3045    8.0913 C.ar     1 ZINC000198362743   -0.1000
13     C13     0.1515   -4.2005    9.1395 C.ar     1 ZINC000198362743   -0.1100
14     C14     0.1514   -3.7436   10.4455 C.ar     1 ZINC000198362743   -0.1000
15     C15     0.1292   -2.3842   10.7111 C.ar     1 ZINC000198362743   -0.0400
16     Cl16    0.1293   -1.8225   12.3537 Cl       1 ZINC000198362743   -0.0600
17     C17     0.1137   -1.4754    9.6727 C.ar     1 ZINC000198362743   -0.0900
18     C18    -0.0001   -0.7297   -1.2707 C.3      1 ZINC000198362743    0.1200
19     C19    -1.2740   -0.3922   -2.0398 C.3      1 ZINC000198362743   -0.1200
20     C20    -1.4207   -1.3252   -3.2439 C.3      1 ZINC000198362743   -0.6000
21     S21    -0.0383   -1.0374   -4.3869 S.o2     1 ZINC000198362743    2.4100
22     O22    -0.0292   -2.0735   -5.3595 O.2      1 ZINC000198362743   -0.9400
23     O23    -0.0761    0.3172   -4.8143 O.2      1 ZINC000198362743   -0.9300
24     C24     1.3881   -1.2624   -3.2846 C.3      1 ZINC000198362743   -0.6000
25     C25     1.2347   -0.3361   -2.0761 C.3      1 ZINC000198362743   -0.1200
26     H26     1.0048    1.8381    0.0023 H        1 ZINC000198362743    0.0700
27     H27    -0.5450    1.8219   -0.8730 H        1 ZINC000198362743    0.0800
28     H28    -0.5280    1.8123    0.9069 H        1 ZINC000198362743    0.0800
29     H29     0.9065    0.7007    2.5274 H        1 ZINC000198362743    0.1000
30     H30    -0.8732    0.6764    2.5442 H        1 ZINC000198362743    0.1000
31     H31     0.0594   -1.8482    3.4003 H        1 ZINC000198362743    0.4100
32     H32     0.0902   -2.4713    5.7604 H        1 ZINC000198362743    0.1300
33     H33     0.0712    0.0925    7.4401 H        1 ZINC000198362743    0.1400
34     H34     0.1288   -3.6631    7.0726 H        1 ZINC000198362743    0.1400
35     H35     0.1685   -5.2619    8.9403 H        1 ZINC000198362743    0.1400
36     H36     0.1684   -4.4504   11.2620 H        1 ZINC000198362743    0.1400
37     H37     0.0964   -0.4158    9.8807 H        1 ZINC000198362743    0.1400
38     H38     0.0264   -1.8013   -1.0732 H        1 ZINC000198362743    0.1200
39     H39    -2.1356   -0.5113   -1.3827 H        1 ZINC000198362743    0.0900
40     H40    -1.2249    0.6402   -2.3859 H        1 ZINC000198362743    0.0900
41     H41    -1.4053   -2.3615   -2.9064 H        1 ZINC000198362743    0.1400
42     H42    -2.3629   -1.1196   -3.7520 H        1 ZINC000198362743    0.1400
43     H43     1.4287   -2.2981   -2.9474 H        1 ZINC000198362743    0.1400
44     H44     2.3050   -1.0152   -3.8195 H        1 ZINC000198362743    0.1400
45     H45     1.1295    0.6929   -2.4199 H        1 ZINC000198362743    0.0900
46     H46     2.1193   -0.4161   -1.4443 H        1 ZINC000198362743    0.0900
@<TRIPOS>BOND
1     1     2     1
2     1     26    1
3     1     27    1
4     1     28    1
5     2     3     am
6     2     18    1
7     3     4     2
8     3     5     1
9     5     6     1
10    5     29    1
11    5     30    1
12    6     7     am
13    6     31    1
14    7     8     2
15    7     9     1
16    9     10    2
17    9     32    1
18    10    11    1
19    10    33    1
20    11    17    ar
21    11    12    ar
22    12    13    ar
23    12    34    1
24    13    14    ar
25    13    35    1
26    14    15    ar
27    14    36    1
28    15    16    1
29    15    17    ar
30    17    37    1
31    18    25    1
32    18    19    1
33    18    38    1
34    19    20    1
35    19    39    1
36    19    40    1
37    20    21    1
38    20    41    1
39    20    42    1
40    21    22    2
41    21    23    2
42    21    24    1
43    24    25    1
44    24    43    1
45    24    44    1
46    25    45    1
47    25    46    1
@<TRIPOS>SUBSTRUCTURE
1   ZINC000198362743 1     RESIDUE    1   A     ZIN   1
