@<TRIPOS>MOLECULE
ZINC000084687355
50    53    1     0     0
SMALL
USER_CHARGES
@<TRIPOS>ATOM
1      C1      2.2175   -3.7544    1.0071 C.3      1 ZINC000084687355    0.0400
2      O2      1.3544   -2.7853    0.3558 O.3      1 ZINC000084687355   -0.3500
3      C3      0.0611   -3.1168    0.2179 C.2      1 ZINC000084687355    0.4400
4      O4     -0.3367   -4.1815    0.6278 O.2      1 ZINC000084687355   -0.4700
5      C5     -0.8949   -2.1610   -0.4482 C.3      1 ZINC000084687355    0.1900
6      H6     -0.9210   -1.2252    0.1100 H        1 ZINC000084687355    0.1600
7      C7     -0.4356   -1.8922   -1.8582 C.ar     1 ZINC000084687355   -0.1000
8      C8      0.0123   -2.9336   -2.6493 C.ar     1 ZINC000084687355   -0.0900
9      C9      0.4337   -2.6877   -3.9425 C.ar     1 ZINC000084687355   -0.1000
10     C10     0.4071   -1.3990   -4.4451 C.ar     1 ZINC000084687355   -0.0200
11     Cl11    0.9356   -1.0895   -6.0695 Cl       1 ZINC000084687355   -0.0600
12     C12    -0.0413   -0.3572   -3.6529 C.ar     1 ZINC000084687355   -0.1000
13     C13    -0.4677   -0.6052   -2.3617 C.ar     1 ZINC000084687355   -0.0800
14     N14    -2.2356   -2.7510   -0.4755 N.am     1 ZINC000084687355   -0.5700
15     C15    -3.2125   -2.1797    0.2270 C.2      1 ZINC000084687355    0.5700
16     O16    -2.9376   -1.1907    0.8787 O.2      1 ZINC000084687355   -0.5100
17     C17    -4.5979   -2.6619    0.2681 C.ar     1 ZINC000084687355   -0.1000
18     C18    -5.6214   -1.6998    0.2491 C.ar     1 ZINC000084687355   -0.0800
19     C19    -6.9431   -2.0846    0.2809 C.ar     1 ZINC000084687355    0.1000
20     F20    -7.9192   -1.1507    0.2623 F        1 ZINC000084687355   -0.1300
21     C21    -7.2723   -3.4312    0.3316 C.ar     1 ZINC000084687355   -0.1000
22     C22    -6.2796   -4.3851    0.3531 C.ar     1 ZINC000084687355   -0.1100
23     C23    -4.9329   -4.0144    0.3246 C.ar     1 ZINC000084687355    0.1500
24     N24    -3.9950   -5.0313    0.3599 N.am     1 ZINC000084687355   -0.5900
25     C25    -2.8740   -5.0753   -0.3538 C.2      1 ZINC000084687355    0.2500
26     S26    -1.9273   -6.3583   -0.2332 S.2      1 ZINC000084687355   -0.3400
27     C27    -2.4725   -3.9507   -1.2784 C.3      1 ZINC000084687355    0.2000
28     H28    -1.5581   -4.2211   -1.8065 H        1 ZINC000084687355    0.1500
29     C29    -3.5749   -3.6979   -2.2743 C.ar     1 ZINC000084687355   -0.1100
30     C30    -3.8346   -2.4104   -2.7055 C.ar     1 ZINC000084687355   -0.0800
31     C31    -4.8455   -2.1780   -3.6189 C.ar     1 ZINC000084687355   -0.1000
32     C32    -5.5976   -3.2341   -4.1017 C.ar     1 ZINC000084687355   -0.0200
33     Cl33   -6.8671   -2.9430   -5.2494 Cl       1 ZINC000084687355   -0.0600
34     C34    -5.3372   -4.5224   -3.6697 C.ar     1 ZINC000084687355   -0.1000
35     C35    -4.3223   -4.7543   -2.7606 C.ar     1 ZINC000084687355   -0.0900
36     H36     3.2336   -3.3626    1.0537 H        1 ZINC000084687355    0.1000
37     H37     1.8543   -3.9434    2.0172 H        1 ZINC000084687355    0.0600
38     H38     2.2126   -4.6848    0.4392 H        1 ZINC000084687355    0.0700
39     H39     0.0333   -3.9395   -2.2567 H        1 ZINC000084687355    0.1300
40     H40     0.7839   -3.5014   -4.5603 H        1 ZINC000084687355    0.1400
41     H41    -0.0620    0.6490   -4.0446 H        1 ZINC000084687355    0.1400
42     H42    -0.8181    0.2079   -1.7433 H        1 ZINC000084687355    0.1400
43     H43    -5.3696   -0.6503    0.2098 H        1 ZINC000084687355    0.1500
44     H44    -8.3093   -3.7320    0.3546 H        1 ZINC000084687355    0.1500
45     H45    -6.5449   -5.4313    0.3933 H        1 ZINC000084687355    0.1500
46     H46    -4.1703   -5.7756    0.9567 H        1 ZINC000084687355    0.4300
47     H47    -3.2477   -1.5860   -2.3283 H        1 ZINC000084687355    0.1300
48     H48    -5.0486   -1.1720   -3.9555 H        1 ZINC000084687355    0.1400
49     H49    -5.9241   -5.3473   -4.0460 H        1 ZINC000084687355    0.1400
50     H50    -4.1187   -5.7600   -2.4236 H        1 ZINC000084687355    0.1300
@<TRIPOS>BOND
1     1     2     1
2     1     36    1
3     1     37    1
4     1     38    1
5     2     3     1
6     3     4     2
7     3     5     1
8     5     6     1
9     5     7     1
10    5     14    1
11    7     13    ar
12    7     8     ar
13    8     9     ar
14    8     39    1
15    9     10    ar
16    9     40    1
17    10    11    1
18    10    12    ar
19    12    13    ar
20    12    41    1
21    13    42    1
22    14    27    1
23    14    15    am
24    15    16    2
25    15    17    1
26    17    23    ar
27    17    18    ar
28    18    19    ar
29    18    43    1
30    19    20    1
31    19    21    ar
32    21    22    ar
33    21    44    1
34    22    23    ar
35    22    45    1
36    23    24    1
37    24    25    am
38    24    46    1
39    25    26    2
40    25    27    1
41    27    28    1
42    27    29    1
43    29    35    ar
44    29    30    ar
45    30    31    ar
46    30    47    1
47    31    32    ar
48    31    48    1
49    32    33    1
50    32    34    ar
51    34    35    ar
52    34    49    1
53    35    50    1
@<TRIPOS>SUBSTRUCTURE
1   ZINC000084687355 1     RESIDUE    1   A     ZIN   1
