@<TRIPOS>MOLECULE
ZINC000002267166
46    50    1     0     0
SMALL
USER_CHARGES
@<TRIPOS>ATOM
1      C1      0.0765    1.4335   -1.3912 C.3      1 ZINC000002267166   -0.1200
2      C2      0.0850   -0.0646   -1.2278 C.ar     1 ZINC000002267166   -0.0500
3      C3      0.2440   -0.8795   -2.3330 C.ar     1 ZINC000002267166   -0.1500
4      C4      0.2518   -2.2537   -2.1831 C.ar     1 ZINC000002267166   -0.0200
5      C5      0.1011   -2.8129   -0.9279 C.ar     1 ZINC000002267166   -0.6300
6      S6      0.1104   -4.5645   -0.7369 S.o2     1 ZINC000002267166    2.6400
7      O7     -0.5885   -4.8404    0.4692 O.2      1 ZINC000002267166   -1.0100
8      O8     -0.2662   -5.1073   -1.9950 O.2      1 ZINC000002267166   -1.0100
9      N9      1.6816   -5.0214   -0.4819 N.pl3    1 ZINC000002267166   -1.0700
10     C10     1.9930   -6.3599   -0.2962 C.ar     1 ZINC000002267166    0.4200
11     C11     3.3366   -6.7450   -0.0728 C.ar     1 ZINC000002267166    0.3600
12     N12     4.3338   -5.7810   -0.0406 N.pl3    1 ZINC000002267166   -0.6300
13     C13     5.6736   -6.1649    0.0613 C.ar     1 ZINC000002267166    0.2000
14     C14     6.0840   -7.3169   -0.5374 C.ar     1 ZINC000002267166   -0.1000
15     C15     7.4396   -7.7173   -0.4416 C.ar     1 ZINC000002267166    0.1100
16     N16     8.0677   -8.7759   -0.9283 N.2      1 ZINC000002267166   -0.6000
17     S17     9.5672   -8.7210   -0.5187 S.3      1 ZINC000002267166    0.7500
18     N18     9.5829   -7.3943    0.2928 N.2      1 ZINC000002267166   -0.5900
19     C19     8.3671   -6.8717    0.3059 C.ar     1 ZINC000002267166    0.0600
20     C20     7.8728   -5.6848    0.9048 C.ar     1 ZINC000002267166   -0.0600
21     C21     6.5671   -5.3531    0.7727 C.ar     1 ZINC000002267166   -0.1000
22     N22     3.6459   -8.0129    0.1051 N.ar     1 ZINC000002267166   -0.4900
23     C23     2.6819   -8.9445    0.0744 C.ar     1 ZINC000002267166    0.0400
24     C24     2.9862  -10.3025    0.2619 C.ar     1 ZINC000002267166   -0.0700
25     C25     1.9891  -11.2299    0.2267 C.ar     1 ZINC000002267166   -0.1500
26     C26     0.6676  -10.8510    0.0063 C.ar     1 ZINC000002267166   -0.1100
27     C27     0.3365   -9.5428   -0.1794 C.ar     1 ZINC000002267166   -0.1100
28     C28     1.3381   -8.5593   -0.1491 C.ar     1 ZINC000002267166    0.1200
29     N29     1.0361   -7.2643   -0.3234 N.ar     1 ZINC000002267166   -0.5700
30     C30    -0.0565   -1.9980    0.1775 C.ar     1 ZINC000002267166   -0.0200
31     C31    -0.0605   -0.6237    0.0281 C.ar     1 ZINC000002267166   -0.1500
32     H32     1.0941    1.8143   -1.3037 H        1 ZINC000002267166    0.0700
33     H33    -0.3242    1.6898   -2.3719 H        1 ZINC000002267166    0.0700
34     H34    -0.5464    1.8800   -0.6161 H        1 ZINC000002267166    0.0700
35     H35     0.3617   -0.4426   -3.3136 H        1 ZINC000002267166    0.1300
36     H36     0.3753   -2.8904   -3.0467 H        1 ZINC000002267166    0.1400
37     H37     4.1010   -4.8406   -0.0889 H        1 ZINC000002267166    0.4300
38     H38     5.3776   -7.9242   -1.0838 H        1 ZINC000002267166    0.1500
39     H39     8.5392   -5.0434    1.4624 H        1 ZINC000002267166    0.1400
40     H40     6.2038   -4.4466    1.2339 H        1 ZINC000002267166    0.1400
41     H41     4.0071  -10.6105    0.4330 H        1 ZINC000002267166    0.1200
42     H42     2.2270  -12.2734    0.3713 H        1 ZINC000002267166    0.1200
43     H43    -0.1056  -11.6047   -0.0181 H        1 ZINC000002267166    0.1200
44     H44    -0.6927   -9.2630   -0.3494 H        1 ZINC000002267166    0.1200
45     H45    -0.1739   -2.4349    1.1582 H        1 ZINC000002267166    0.1400
46     H46    -0.1836    0.0130    0.8917 H        1 ZINC000002267166    0.1300
@<TRIPOS>BOND
1     1     2     1
2     1     32    1
3     1     33    1
4     1     34    1
5     2     31    ar
6     2     3     ar
7     3     4     ar
8     3     35    1
9     4     5     ar
10    4     36    1
11    5     6     1
12    5     30    ar
13    6     7     2
14    6     8     2
15    6     9     1
16    9     10    1
17    10    29    ar
18    10    11    ar
19    11    12    1
20    11    22    ar
21    12    13    1
22    12    37    1
23    13    21    ar
24    13    14    ar
25    14    15    ar
26    14    38    1
27    15    19    ar
28    15    16    2
29    16    17    1
30    17    18    1
31    18    19    2
32    19    20    ar
33    20    21    ar
34    20    39    1
35    21    40    1
36    22    23    ar
37    23    28    ar
38    23    24    ar
39    24    25    ar
40    24    41    1
41    25    26    ar
42    25    42    1
43    26    27    ar
44    26    43    1
45    27    28    ar
46    27    44    1
47    28    29    ar
48    30    31    ar
49    30    45    1
50    31    46    1
@<TRIPOS>SUBSTRUCTURE
1   ZINC000002267166 1     RESIDUE    1   A     ZIN   1
