@<TRIPOS>MOLECULE
ZINC000013538929
44    47    1     0     0
SMALL
USER_CHARGES
@<TRIPOS>ATOM
1      C1     -1.2826    0.6667   -3.6000 C.3      1 ZINC000013538929    0.0300
2      O2     -1.0787   -0.6515   -3.0874 O.3      1 ZINC000013538929   -0.3200
3      C3     -1.9730   -1.1010   -2.1670 C.ar     1 ZINC000013538929    0.1200
4      C4     -3.0296   -0.2873   -1.7710 C.ar     1 ZINC000013538929   -0.1900
5      C5     -3.9434   -0.7292   -0.8394 C.ar     1 ZINC000013538929   -0.0700
6      C6     -3.8146   -1.9988   -0.2857 C.ar     1 ZINC000013538929    0.0500
7      C7     -2.7486   -2.8199   -0.6849 C.ar     1 ZINC000013538929   -0.0300
8      C8     -1.8332   -2.3680   -1.6308 C.ar     1 ZINC000013538929   -0.1200
9      C9     -2.8967   -4.0767    0.0756 C.2      1 ZINC000013538929   -0.2300
10     C10    -2.0548   -5.2124    0.0115 C.2      1 ZINC000013538929    0.1200
11     C11    -2.5944   -6.4783    0.1181 C.2      1 ZINC000013538929   -0.2300
12     C12    -4.0159   -6.8443    0.1380 C.2      1 ZINC000013538929    0.5600
13     O13    -4.9550   -6.0718    0.0614 O.2      1 ZINC000013538929   -0.5100
14     N14    -4.1002   -8.1803    0.2547 N.am     1 ZINC000013538929   -0.6500
15     C15    -2.8408   -8.7638    0.3168 C.ar     1 ZINC000013538929    0.2000
16     C16    -2.4392  -10.0895    0.4368 C.ar     1 ZINC000013538929   -0.1600
17     C17    -1.0961  -10.4053    0.4766 C.ar     1 ZINC000013538929    0.0100
18     C18    -0.1350   -9.4115    0.3980 C.ar     1 ZINC000013538929   -0.7000
19     S19     1.5746   -9.8348    0.4510 S.o2     1 ZINC000013538929    2.7100
20     N20     2.0647  -10.0912   -1.1098 N.am     1 ZINC000013538929   -1.2500
21     O21     2.2612   -8.6752    0.9019 O.2      1 ZINC000013538929   -0.9600
22     O22     1.6565  -11.0916    1.1090 O.2      1 ZINC000013538929   -0.9600
23     C23    -0.5144   -8.0896    0.2776 C.ar     1 ZINC000013538929    0.0300
24     C24    -1.8649   -7.7614    0.2306 C.ar     1 ZINC000013538929   -0.1100
25     C25    -4.0204   -3.9219    0.8621 C.2      1 ZINC000013538929    0.1800
26     N26    -4.5575   -2.6981    0.6466 N.pl3    1 ZINC000013538929   -0.4700
27     C27    -5.7591   -2.1858    1.3099 C.3      1 ZINC000013538929    0.0700
28     H28    -0.5012    0.9002   -4.3233 H        1 ZINC000013538929    0.1000
29     H29    -2.2562    0.7207   -4.0870 H        1 ZINC000013538929    0.0500
30     H30    -1.2457    1.3849   -2.7809 H        1 ZINC000013538929    0.0600
31     H31    -3.1343    0.6994   -2.1974 H        1 ZINC000013538929    0.1300
32     H32    -4.7599   -0.0894   -0.5387 H        1 ZINC000013538929    0.1300
33     H33    -1.0132   -3.0002   -1.9381 H        1 ZINC000013538929    0.1300
34     H34    -0.9902   -5.0886   -0.1209 H        1 ZINC000013538929    0.1400
35     H35    -4.9341   -8.6744    0.2915 H        1 ZINC000013538929    0.4200
36     H36    -3.1794  -10.8734    0.4993 H        1 ZINC000013538929    0.1400
37     H37    -0.7919  -11.4373    0.5703 H        1 ZINC000013538929    0.1500
38     H38     2.9822   -9.9083   -1.3663 H        1 ZINC000013538929    0.4200
39     H39     1.4345  -10.4244   -1.7676 H        1 ZINC000013538929    0.4200
40     H40     0.2345   -7.3139    0.2162 H        1 ZINC000013538929    0.1500
41     H41    -4.4109   -4.6627    1.5441 H        1 ZINC000013538929    0.1800
42     H42    -5.4759   -1.6714    2.2282 H        1 ZINC000013538929    0.0800
43     H43    -6.2714   -1.4892    0.6463 H        1 ZINC000013538929    0.0900
44     H44    -6.4241   -3.0158    1.5487 H        1 ZINC000013538929    0.0900
@<TRIPOS>BOND
1     1     2     1
2     1     28    1
3     1     29    1
4     1     30    1
5     2     3     1
6     3     8     ar
7     3     4     ar
8     4     5     ar
9     4     31    1
10    5     6     ar
11    5     32    1
12    6     26    1
13    6     7     ar
14    7     8     ar
15    7     9     1
16    8     33    1
17    9     10    1
18    9     25    2
19    10    11    2
20    10    34    1
21    11    24    1
22    11    12    1
23    12    13    2
24    12    14    am
25    14    15    1
26    14    35    1
27    15    24    ar
28    15    16    ar
29    16    17    ar
30    16    36    1
31    17    18    ar
32    17    37    1
33    18    19    1
34    18    23    ar
35    19    20    am
36    19    21    2
37    19    22    2
38    20    38    1
39    20    39    1
40    23    24    ar
41    23    40    1
42    25    26    1
43    25    41    1
44    26    27    1
45    27    42    1
46    27    43    1
47    27    44    1
@<TRIPOS>SUBSTRUCTURE
1   ZINC000013538929 1     RESIDUE    1   A     ZIN   1
