@<TRIPOS>MOLECULE
ZINC000000967120
33    34    1     0     0
SMALL
USER_CHARGES
@<TRIPOS>ATOM
1      C1      0.2965    1.8459    0.0927 C.3      1 ZINC000000967120   -0.1100
2      C2      0.0292    0.3652    0.0087 C.2      1 ZINC000000967120   -0.0900
3      C3     -0.0366   -0.4067    1.1856 C.2      1 ZINC000000967120    0.0700
4      C4     -1.0195   -0.1708    2.1021 C.2      1 ZINC000000967120   -0.2500
5      S5     -1.2047   -0.8903    3.7140 S.3      1 ZINC000000967120    0.0700
6      C6     -2.6897   -0.0013    4.0954 C.2      1 ZINC000000967120    0.2900
7      S7     -3.5961   -0.1035    5.5442 S.2      1 ZINC000000967120   -0.3900
8      N8     -2.9664    0.7653    3.0343 N.am     1 ZINC000000967120   -0.4700
9      C9     -4.1478    1.6318    3.0377 C.3      1 ZINC000000967120    0.0100
10     C10    -3.7793    2.9813    3.5982 C.2      1 ZINC000000967120    0.5000
11     O11    -2.6359    3.1991    3.9612 O.co2    1 ZINC000000967120   -0.6800
12     O12    -4.6246    3.8552    3.6888 O.co2    1 ZINC000000967120   -0.6800
13     C13    -2.1619    0.7399    1.9848 C.2      1 ZINC000000967120    0.5500
14     O14    -2.3614    1.4144    0.9911 O.2      1 ZINC000000967120   -0.4400
15     C15    -0.1478   -0.2235   -1.1977 C.2      1 ZINC000000967120   -0.0900
16     C16    -0.5491   -1.6357   -1.2749 C.ar     1 ZINC000000967120   -0.0600
17     C17    -1.3453   -2.1967   -0.2700 C.ar     1 ZINC000000967120   -0.1200
18     C18    -1.7176   -3.5216   -0.3500 C.ar     1 ZINC000000967120   -0.1200
19     C19    -1.3062   -4.2966   -1.4206 C.ar     1 ZINC000000967120   -0.1200
20     C20    -0.5182   -3.7496   -2.4185 C.ar     1 ZINC000000967120   -0.1200
21     C21    -0.1419   -2.4247   -2.3565 C.ar     1 ZINC000000967120   -0.1100
22     H22     1.3721    2.0221    0.0821 H        1 ZINC000000967120    0.0700
23     H23    -0.1622    2.3468   -0.7598 H        1 ZINC000000967120    0.0700
24     H24    -0.1272    2.2397    1.0166 H        1 ZINC000000967120    0.0700
25     H25     0.6909   -1.1851    1.3623 H        1 ZINC000000967120    0.1500
26     H26    -4.5148    1.7497    2.0182 H        1 ZINC000000967120    0.1000
27     H27    -4.9261    1.1824    3.6544 H        1 ZINC000000967120    0.1100
28     H28     0.0059    0.3444   -2.1034 H        1 ZINC000000967120    0.1300
29     H29    -1.6668   -1.5934    0.5661 H        1 ZINC000000967120    0.1300
30     H30    -2.3318   -3.9562    0.4248 H        1 ZINC000000967120    0.1200
31     H31    -1.6013   -5.3340   -1.4775 H        1 ZINC000000967120    0.1200
32     H32    -0.2007   -4.3612   -3.2502 H        1 ZINC000000967120    0.1200
33     H33     0.4727   -1.9993   -3.1360 H        1 ZINC000000967120    0.1300
@<TRIPOS>BOND
1     1     2     1
2     1     22    1
3     1     23    1
4     1     24    1
5     2     3     1
6     2     15    2
7     3     4     2
8     3     25    1
9     4     13    1
10    4     5     1
11    5     6     1
12    6     7     2
13    6     8     am
14    8     9     1
15    8     13    am
16    9     10    1
17    9     26    1
18    9     27    1
19    10    11    ar
20    10    12    ar
21    13    14    2
22    15    16    1
23    15    28    1
24    16    21    ar
25    16    17    ar
26    17    18    ar
27    17    29    1
28    18    19    ar
29    18    30    1
30    19    20    ar
31    19    31    1
32    20    21    ar
33    20    32    1
34    21    33    1
@<TRIPOS>SUBSTRUCTURE
1   ZINC000000967120 1     RESIDUE    1   A     ZIN   1
