@<TRIPOS>MOLECULE
ZINC000020201746
47    50    1     0     0
SMALL
USER_CHARGES
@<TRIPOS>ATOM
1      O1      0.0021   -0.0041    0.0020 O.2      1 ZINC000020201746   -0.5300
2      C2     -0.0144    1.2086    0.0087 C.2      1 ZINC000020201746    0.5200
3      C3      1.2803    1.9798    0.0005 C.3      1 ZINC000020201746   -0.1400
4      C4      2.4566    1.0015   -0.0160 C.3      1 ZINC000020201746   -0.0300
5      C5      3.7513    1.7727   -0.0242 C.2      1 ZINC000020201746   -0.1800
6      C6      4.4250    2.1557    1.0614 C.2      1 ZINC000020201746   -0.1400
7      C7      5.5924    2.8547    0.8069 C.2      1 ZINC000020201746   -0.1300
8      C8      5.8667    3.0392   -0.4854 C.2      1 ZINC000020201746   -0.2100
9      S9      4.6090    2.2987   -1.4669 S.3      1 ZINC000020201746    0.1000
10     N10    -1.1906    1.8666    0.0178 N.am     1 ZINC000020201746   -0.6200
11     C11    -1.2320    3.3365    0.0199 C.3      1 ZINC000020201746    0.1100
12     C12    -1.8797    3.8236   -1.2821 C.3      1 ZINC000020201746   -0.0800
13     C13    -3.1162    3.0015   -1.5480 C.2      1 ZINC000020201746    0.1000
14     C14    -3.3789    1.8044   -0.9720 C.2      1 ZINC000020201746   -0.2400
15     C15    -2.4680    1.1308    0.0199 C.3      1 ZINC000020201746    0.1900
16     C16    -4.6099    1.3425   -1.4673 C.2      1 ZINC000020201746    0.1200
17     C17    -5.2729    0.0759   -1.1069 C.2      1 ZINC000020201746   -0.0900
18     C18    -6.4541   -0.2438   -1.6583 C.2      1 ZINC000020201746   -0.0700
19     C19    -7.1169   -1.5102   -1.2980 C.ar     1 ZINC000020201746   -0.0600
20     C20    -6.5213   -2.3775   -0.3785 C.ar     1 ZINC000020201746   -0.1100
21     C21    -7.1475   -3.5604   -0.0458 C.ar     1 ZINC000020201746   -0.1200
22     C22    -8.3626   -3.8894   -0.6206 C.ar     1 ZINC000020201746   -0.1200
23     C23    -8.9584   -3.0354   -1.5320 C.ar     1 ZINC000020201746   -0.1200
24     C24    -8.3467   -1.8464   -1.8699 C.ar     1 ZINC000020201746   -0.1000
25     N25    -5.0668    2.2487   -2.3140 N.2      1 ZINC000020201746   -0.2800
26     N26    -4.1383    3.2982   -2.3728 N.pl3    1 ZINC000020201746   -0.4600
27     H27     1.3211    2.6120   -0.8866 H        1 ZINC000020201746    0.1000
28     H28     1.3381    2.6024    0.8933 H        1 ZINC000020201746    0.1000
29     H29     2.4158    0.3693    0.8710 H        1 ZINC000020201746    0.0900
30     H30     2.3988    0.3789   -0.9088 H        1 ZINC000020201746    0.0800
31     H31     4.0853    1.9374    2.0630 H        1 ZINC000020201746    0.1400
32     H32     6.2325    3.2230    1.5950 H        1 ZINC000020201746    0.1400
33     H33     6.7308    3.5604   -0.8702 H        1 ZINC000020201746    0.1600
34     H34    -1.8188    3.6831    0.8706 H        1 ZINC000020201746    0.0800
35     H35    -0.2178    3.7294    0.0914 H        1 ZINC000020201746    0.1000
36     H36    -2.1538    4.8739   -1.1831 H        1 ZINC000020201746    0.1000
37     H37    -1.1771    3.7036   -2.1067 H        1 ZINC000020201746    0.0900
38     H38    -2.3031    0.0938   -0.2725 H        1 ZINC000020201746    0.1000
39     H39    -2.9094    1.1708    1.0157 H        1 ZINC000020201746    0.0800
40     H40    -4.8081   -0.5946   -0.3993 H        1 ZINC000020201746    0.1400
41     H41    -6.9189    0.4267   -2.3659 H        1 ZINC000020201746    0.1300
42     H42    -5.5727   -2.1223    0.0703 H        1 ZINC000020201746    0.1300
43     H43    -6.6884   -4.2318    0.6647 H        1 ZINC000020201746    0.1200
44     H44    -8.8480   -4.8174   -0.3569 H        1 ZINC000020201746    0.1200
45     H45    -9.9066   -3.2989   -1.9768 H        1 ZINC000020201746    0.1200
46     H46    -8.8129   -1.1808   -2.5813 H        1 ZINC000020201746    0.1300
47     H47    -4.2186    4.0993   -2.9139 H        1 ZINC000020201746    0.4400
@<TRIPOS>BOND
1     1     2     2
2     2     3     1
3     2     10    am
4     3     4     1
5     3     27    1
6     3     28    1
7     4     5     1
8     4     29    1
9     4     30    1
10    5     9     1
11    5     6     2
12    6     7     1
13    6     31    1
14    7     8     2
15    7     32    1
16    8     9     1
17    8     33    1
18    10    15    1
19    10    11    1
20    11    12    1
21    11    34    1
22    11    35    1
23    12    13    1
24    12    36    1
25    12    37    1
26    13    26    1
27    13    14    2
28    14    15    1
29    14    16    1
30    15    38    1
31    15    39    1
32    16    17    1
33    16    25    2
34    17    18    2
35    17    40    1
36    18    19    1
37    18    41    1
38    19    24    ar
39    19    20    ar
40    20    21    ar
41    20    42    1
42    21    22    ar
43    21    43    1
44    22    23    ar
45    22    44    1
46    23    24    ar
47    23    45    1
48    24    46    1
49    25    26    1
50    26    47    1
@<TRIPOS>SUBSTRUCTURE
1   ZINC000020201746 1     RESIDUE    1   A     ZIN   1
