@<TRIPOS>MOLECULE
ZINC000584904672
66    70    1     0     0
SMALL
USER_CHARGES
@<TRIPOS>ATOM
1      C1     -0.0178    1.4648    0.0101 C.3      1 ZINC000584904672   -0.0500
2      N2      0.0021   -0.0041    0.0020 N.4      1 ZINC000584904672   -0.3900
3      H3     -0.9446   -0.3531    0.0092 H        1 ZINC000584904672    0.4200
4      C4      0.7119   -0.4904    1.1925 C.3      1 ZINC000584904672    0.0000
5      C5      0.7166   -2.0206    1.1942 C.3      1 ZINC000584904672    0.0200
6      N6      1.3783   -2.5070   -0.0247 N.3      1 ZINC000584904672   -0.4900
7      C7      1.4497   -3.9031   -0.0329 C.ar     1 ZINC000584904672    0.0800
8      C8      0.9236   -4.6319    1.0262 C.ar     1 ZINC000584904672   -0.1400
9      C9      0.9938   -6.0103    1.0176 C.ar     1 ZINC000584904672   -0.0900
10     C10     1.5904   -6.6686   -0.0496 C.ar     1 ZINC000584904672    0.1500
11     N11     1.6616   -8.0695   -0.0580 N.pl3    1 ZINC000584904672   -0.3200
12     C12     2.2171   -8.8282   -1.0271 C.2      1 ZINC000584904672    0.0800
13     C13     2.0815  -10.1352   -0.6560 C.2      1 ZINC000584904672   -0.1800
14     C14     2.5488  -11.3170   -1.4215 C.ar     1 ZINC000584904672    0.0100
15     C15     2.2442  -11.4605   -2.7769 C.ar     1 ZINC000584904672   -0.1300
16     C16     2.6983  -12.5751   -3.4521 C.ar     1 ZINC000584904672    0.0800
17     N17     3.4110  -13.4987   -2.8364 N.ar     1 ZINC000584904672   -0.4500
18     C18     3.7230  -13.4056   -1.5577 C.ar     1 ZINC000584904672    0.0300
19     C19     3.3136  -12.3180   -0.8056 C.ar     1 ZINC000584904672    0.0800
20     O20     3.6383  -12.2272    0.5110 O.3      1 ZINC000584904672   -0.3000
21     C21     4.4101  -13.2953    1.0640 C.3      1 ZINC000584904672    0.0600
22     C22     4.6754  -13.0190    2.5453 C.3      1 ZINC000584904672   -0.1000
23     C23     3.3525  -13.0462    3.3162 C.3      1 ZINC000584904672   -0.1400
24     C24     3.6333  -12.8484    4.8074 C.3      1 ZINC000584904672   -0.0100
25     N25     4.5057  -13.9248    5.2917 N.4      1 ZINC000584904672   -0.5100
26     H26     4.6454  -13.8217    6.2856 H        1 ZINC000584904672    0.4300
27     H27     4.0730  -14.8169    5.1046 H        1 ZINC000584904672    0.4300
28     C28     5.8028  -13.8605    4.6076 C.3      1 ZINC000584904672    0.0000
29     C29     5.6055  -14.0973    3.1087 C.3      1 ZINC000584904672   -0.1400
30     C30     1.4172  -10.1572    0.5865 C.2      1 ZINC000584904672    0.0900
31     N31     1.1744   -8.9224    0.9398 N.2      1 ZINC000584904672   -0.2900
32     C32     2.1160   -5.9405   -1.1087 C.ar     1 ZINC000584904672   -0.1100
33     C33     2.0417   -4.5622   -1.1029 C.ar     1 ZINC000584904672   -0.1000
34     C34     0.6932   -2.0076   -1.2253 C.3      1 ZINC000584904672    0.0200
35     C35     0.6890   -0.4775   -1.2069 C.3      1 ZINC000584904672    0.0000
36     H36     1.0047    1.8421    0.0024 H        1 ZINC000584904672    0.1200
37     H37    -0.5450    1.8259   -0.8730 H        1 ZINC000584904672    0.1300
38     H38    -0.5280    1.8163    0.9069 H        1 ZINC000584904672    0.1300
39     H39     1.7384   -0.1239    1.1783 H        1 ZINC000584904672    0.1400
40     H40     0.2090   -0.1276    2.0888 H        1 ZINC000584904672    0.1400
41     H41     1.2562   -2.3817    2.0697 H        1 ZINC000584904672    0.1300
42     H42    -0.3095   -2.3874    1.2221 H        1 ZINC000584904672    0.0700
43     H43     0.4599   -4.1199    1.8565 H        1 ZINC000584904672    0.1400
44     H44     0.5851   -6.5770    1.8412 H        1 ZINC000584904672    0.1400
45     H45     2.6835   -8.4669   -1.9317 H        1 ZINC000584904672    0.1800
46     H46     1.6610  -10.7098   -3.2895 H        1 ZINC000584904672    0.1400
47     H47     2.4664  -12.6931   -4.5003 H        1 ZINC000584904672    0.1700
48     H48     4.3085  -14.1854   -1.0933 H        1 ZINC000584904672    0.1600
49     H49     3.8609  -14.2312    0.9616 H        1 ZINC000584904672    0.0700
50     H50     5.3589  -13.3708    0.5328 H        1 ZINC000584904672    0.0800
51     H51     5.1428  -12.0405    2.6555 H        1 ZINC000584904672    0.1000
52     H52     2.7060  -12.2449    2.9582 H        1 ZINC000584904672    0.1200
53     H53     2.8614  -14.0071    3.1626 H        1 ZINC000584904672    0.0900
54     H54     4.1241  -11.8871    4.9598 H        1 ZINC000584904672    0.1300
55     H55     2.6934  -12.8670    5.3592 H        1 ZINC000584904672    0.1400
56     H56     6.2474  -12.8777    4.7643 H        1 ZINC000584904672    0.1300
57     H57     6.4646  -14.6264    5.0119 H        1 ZINC000584904672    0.1400
58     H58     5.1611  -15.0800    2.9508 H        1 ZINC000584904672    0.0900
59     H59     6.5694  -14.0474    2.6024 H        1 ZINC000584904672    0.1200
60     H60     1.1573  -11.0407    1.1507 H        1 ZINC000584904672    0.1900
61     H61     2.5796   -6.4528   -1.9387 H        1 ZINC000584904672    0.1400
62     H62     2.4503   -3.9959   -1.9268 H        1 ZINC000584904672    0.1400
63     H63     1.2157   -2.3592   -2.1150 H        1 ZINC000584904672    0.1300
64     H64    -0.3333   -2.3742   -1.2373 H        1 ZINC000584904672    0.0700
65     H65     0.1689   -0.1049   -2.0894 H        1 ZINC000584904672    0.1400
66     H66     1.7157   -0.1113   -1.2087 H        1 ZINC000584904672    0.1400
@<TRIPOS>BOND
1     1     2     1
2     1     36    1
3     1     37    1
4     1     38    1
5     2     3     1
6     2     35    1
7     2     4     1
8     4     5     1
9     4     39    1
10    4     40    1
11    5     6     1
12    5     41    1
13    5     42    1
14    6     7     1
15    6     34    1
16    7     33    ar
17    7     8     ar
18    8     9     ar
19    8     43    1
20    9     10    ar
21    9     44    1
22    10    11    1
23    10    32    ar
24    11    31    1
25    11    12    1
26    12    13    2
27    12    45    1
28    13    14    1
29    13    30    1
30    14    19    ar
31    14    15    ar
32    15    16    ar
33    15    46    1
34    16    17    ar
35    16    47    1
36    17    18    ar
37    18    19    ar
38    18    48    1
39    19    20    1
40    20    21    1
41    21    22    1
42    21    49    1
43    21    50    1
44    22    29    1
45    22    23    1
46    22    51    1
47    23    24    1
48    23    52    1
49    23    53    1
50    24    25    1
51    24    54    1
52    24    55    1
53    25    26    1
54    25    27    1
55    25    28    1
56    28    29    1
57    28    56    1
58    28    57    1
59    29    58    1
60    29    59    1
61    30    31    2
62    30    60    1
63    32    33    ar
64    32    61    1
65    33    62    1
66    34    35    1
67    34    63    1
68    34    64    1
69    35    65    1
70    35    66    1
@<TRIPOS>SUBSTRUCTURE
1   ZINC000584904672 1     RESIDUE    1   A     ZIN   1
