@<TRIPOS>MOLECULE
ZINC000001655070
  38   42    0    0    0
SMALL
USER_CHARGES
NO_NAME
@<TRIPOS>ATOM
    1 C1       -0.0164     1.3595     0.0095 C.2    1 <0>       0.0900
    2 C2        1.2543     1.8355    -0.0001 C.2    1 <0>      -0.1400
    3 C3        1.6657     3.2571     0.0044 C.ar   1 <0>       0.1500
    4 C4        0.6983     4.2639     0.0251 C.ar   1 <0>       0.0600
    5 N5        1.0648     5.5304     0.0290 N.ar   1 <0>      -0.4300
    6 C6        2.3576     5.8494     0.0137 C.ar   1 <0>       0.1500
    7 C7        2.7690     7.2710     0.0182 C.2    1 <0>      -0.1400
    8 C8        4.0396     7.7471    -0.0017 C.2    1 <0>       0.0900
    9 N9        4.0211     9.1107     0.0095 N.pl3  1 <0>      -0.5800
   10 C10       2.7214     9.5689     0.0374 C.ar   1 <0>       0.0900
   11 C11       2.1601    10.8415     0.0580 C.ar   1 <0>      -0.1300
   12 C12       0.7904    10.9882     0.0846 C.ar   1 <0>      -0.1000
   13 C13      -0.0400     9.8766     0.0916 C.ar   1 <0>      -0.1500
   14 C14       0.4958     8.6079     0.0720 C.ar   1 <0>      -0.0600
   15 C15       1.8794     8.4439     0.0385 C.ar   1 <0>      -0.0800
   16 C16       3.3251     4.8427    -0.0060 C.ar   1 <0>       0.0600
   17 N17       2.9586     3.5761    -0.0059 N.ar   1 <0>      -0.4300
   18 C18       2.1440     0.6626    -0.0149 C.ar   1 <0>      -0.0800
   19 C19       3.5279     0.4984    -0.0296 C.ar   1 <0>      -0.0600
   20 C20       4.0637    -0.7704    -0.0422 C.ar   1 <0>      -0.1500
   21 C21       3.2332    -1.8820    -0.0407 C.ar   1 <0>      -0.1000
   22 C22       1.8634    -1.7351    -0.0267 C.ar   1 <0>      -0.1300
   23 C23       1.3020    -0.4624    -0.0129 C.ar   1 <0>       0.0900
   24 N24       0.0021    -0.0041     0.0020 N.pl3  1 <0>      -0.5800
   25 H25      -0.9080     1.9687     0.0254 H      1 <0>       0.1800
   26 H26      -0.3502     4.0051     0.0375 H      1 <0>       0.1700
   27 H27       4.9311     7.1379    -0.0226 H      1 <0>       0.1800
   28 H28       4.8090     9.6764    -0.0006 H      1 <0>       0.4200
   29 H29       2.7972    11.7135     0.0534 H      1 <0>       0.1200
   30 H30       0.3589    11.9782     0.1005 H      1 <0>       0.1300
   31 H31      -1.1119    10.0068     0.1129 H      1 <0>       0.1200
   32 H32      -0.1531     7.7446     0.0782 H      1 <0>       0.1300
   33 H33       4.3736     5.1014    -0.0181 H      1 <0>       0.1700
   34 H34       4.1769     1.3616    -0.0315 H      1 <0>       0.1300
   35 H35       5.1358    -0.9007    -0.0537 H      1 <0>       0.1200
   36 H36       3.6647    -2.8719    -0.0511 H      1 <0>       0.1300
   37 H37       1.2261    -2.6071    -0.0256 H      1 <0>       0.1200
   38 H38      -0.7859    -0.5698     0.0056 H      1 <0>       0.4200
@<TRIPOS>BOND
   1    1   24 1
   2    1    2 2
   3    1   25 1
   4    2    3 1
   5    2   18 1
   6    3   17 ar
   7    3    4 ar
   8    4    5 ar
   9    4   26 1
  10    5    6 ar
  11    6    7 1
  12    6   16 ar
  13    7   15 1
  14    7    8 2
  15    8    9 1
  16    8   27 1
  17    9   10 1
  18    9   28 1
  19   10   15 ar
  20   10   11 ar
  21   11   12 ar
  22   11   29 1
  23   12   13 ar
  24   12   30 1
  25   13   14 ar
  26   13   31 1
  27   14   15 ar
  28   14   32 1
  29   16   17 ar
  30   16   33 1
  31   18   23 ar
  32   18   19 ar
  33   19   20 ar
  34   19   34 1
  35   20   21 ar
  36   20   35 1
  37   21   22 ar
  38   21   36 1
  39   22   23 ar
  40   22   37 1
  41   23   24 1
  42   24   38 1
