@<TRIPOS>MOLECULE
ZINC000001530652
50    51    1     0     0
SMALL
USER_CHARGES
@<TRIPOS>ATOM
1      C1     -0.3899   -2.4300   -1.1424 C.3      1 ZINC000001530652   -0.1900
2      C2     -1.2212   -1.9711    0.0573 C.3      1 ZINC000001530652   -0.0200
3      N3     -1.2742   -0.5033    0.0837 N.4      1 ZINC000001530652   -0.3800
4      H4     -0.3359   -0.1326    0.0685 H        1 ZINC000001530652    0.4300
5      C5     -1.9561   -0.0599    1.3069 C.3      1 ZINC000001530652   -0.0100
6      C6     -1.1235   -0.4568    2.5275 C.3      1 ZINC000001530652    0.0500
7      O7      0.1174    0.2516    2.5085 O.3      1 ZINC000001530652   -0.5800
8      C8     -2.0113   -0.0188   -1.0910 C.3      1 ZINC000001530652   -0.0100
9      C9     -1.9428    1.5089   -1.1415 C.3      1 ZINC000001530652   -0.1500
10     C10    -2.5918    2.0060   -2.4349 C.3      1 ZINC000001530652   -0.1200
11     C11    -2.5234    3.5336   -2.4854 C.3      1 ZINC000001530652    0.1500
12     H12    -1.4886    3.8550   -2.3669 H        1 ZINC000001530652    0.0900
13     C13    -3.0586    4.0238   -3.8323 C.3      1 ZINC000001530652   -0.1800
14     N14    -3.3360    4.0949   -1.4034 N.pl3    1 ZINC000001530652   -0.7300
15     C15    -3.0518    5.3576   -0.9064 C.ar     1 ZINC000001530652    0.2700
16     C16    -3.8185    5.9188    0.1423 C.ar     1 ZINC000001530652   -0.1500
17     C17    -4.8906    5.2212    0.7160 C.ar     1 ZINC000001530652   -0.0800
18     C18    -5.6052    5.7944    1.7242 C.ar     1 ZINC000001530652   -0.1200
19     C19    -5.2838    7.0674    2.1927 C.ar     1 ZINC000001530652   -0.0100
20     Cl20   -6.2173    7.7656    3.4790 Cl       1 ZINC000001530652   -0.0500
21     C21    -4.2480    7.7717    1.6567 C.ar     1 ZINC000001530652   -0.0900
22     C22    -3.4885    7.2114    0.6155 C.ar     1 ZINC000001530652    0.1800
23     N23    -2.4659    7.8810    0.0716 N.ar     1 ZINC000001530652   -0.5100
24     C24    -1.7471    7.3705   -0.9014 C.ar     1 ZINC000001530652    0.1800
25     C25    -2.0039    6.1079   -1.4171 C.ar     1 ZINC000001530652   -0.2700
26     H26    -0.2676   -3.5125   -1.1070 H        1 ZINC000001530652    0.1100
27     H27    -0.8991   -2.1519   -2.0651 H        1 ZINC000001530652    0.0800
28     H28     0.5894   -1.9525   -1.1097 H        1 ZINC000001530652    0.0800
29     H29    -2.2322   -2.3697   -0.0275 H        1 ZINC000001530652    0.1300
30     H30    -0.7633   -2.3348    0.9771 H        1 ZINC000001530652    0.1300
31     H31    -2.0745    1.0235    1.2845 H        1 ZINC000001530652    0.1400
32     H32    -2.9371   -0.5313    1.3673 H        1 ZINC000001530652    0.1400
33     H33    -1.6702   -0.2076    3.4369 H        1 ZINC000001530652    0.0900
34     H34    -0.9300   -1.5292    2.5022 H        1 ZINC000001530652    0.0700
35     H35     0.6977    0.0486    3.2549 H        1 ZINC000001530652    0.4100
36     H36    -1.5657   -0.4325   -1.9956 H        1 ZINC000001530652    0.1300
37     H37    -3.0525   -0.3337   -1.0220 H        1 ZINC000001530652    0.1300
38     H38    -2.4739    1.9249   -0.2854 H        1 ZINC000001530652    0.0900
39     H39    -0.9007    1.8271   -1.1124 H        1 ZINC000001530652    0.0900
40     H40    -2.0608    1.5899   -3.2910 H        1 ZINC000001530652    0.0900
41     H41    -3.6339    1.6878   -2.4641 H        1 ZINC000001530652    0.0800
42     H42    -4.0934    3.7023   -3.9508 H        1 ZINC000001530652    0.0600
43     H43    -3.0099    5.1121   -3.8683 H        1 ZINC000001530652    0.0700
44     H44    -2.4540    3.6062   -4.6373 H        1 ZINC000001530652    0.0700
45     H45    -4.0730    3.5831   -1.0347 H        1 ZINC000001530652    0.4000
46     H46    -5.1489    4.2347    0.3604 H        1 ZINC000001530652    0.1300
47     H47    -6.4310    5.2563    2.1656 H        1 ZINC000001530652    0.1400
48     H48    -4.0117    8.7571    2.0303 H        1 ZINC000001530652    0.1500
49     H49    -0.9309    7.9480   -1.3096 H        1 ZINC000001530652    0.1600
50     H50    -1.3948    5.7147   -2.2176 H        1 ZINC000001530652    0.1400
@<TRIPOS>BOND
1     1     2     1
2     1     26    1
3     1     27    1
4     1     28    1
5     2     3     1
6     2     29    1
7     2     30    1
8     3     4     1
9     3     5     1
10    3     8     1
11    5     6     1
12    5     31    1
13    5     32    1
14    6     7     1
15    6     33    1
16    6     34    1
17    7     35    1
18    8     9     1
19    8     36    1
20    8     37    1
21    9     10    1
22    9     38    1
23    9     39    1
24    10    11    1
25    10    40    1
26    10    41    1
27    11    12    1
28    11    13    1
29    11    14    1
30    13    42    1
31    13    43    1
32    13    44    1
33    14    15    1
34    14    45    1
35    15    25    ar
36    15    16    ar
37    16    22    ar
38    16    17    ar
39    17    18    ar
40    17    46    1
41    18    19    ar
42    18    47    1
43    19    20    1
44    19    21    ar
45    21    22    ar
46    21    48    1
47    22    23    ar
48    23    24    ar
49    24    25    ar
50    24    49    1
51    25    50    1
@<TRIPOS>SUBSTRUCTURE
1   ZINC000001530652 1     RESIDUE    1   A     ZIN   1
