@<TRIPOS>MOLECULE
ZINC000040955218
39    43    1     0     0
SMALL
USER_CHARGES
@<TRIPOS>ATOM
1      C1     -0.0217    1.7495    0.0117 C.2      1 ZINC000040955218   -0.1600
2      C2      1.2041    2.2467    0.0026 C.2      1 ZINC000040955218   -0.1200
3      C3      2.2621    1.2582   -0.0128 C.ar     1 ZINC000040955218    0.1900
4      N4      3.6022    1.4221   -0.0251 N.ar     1 ZINC000040955218   -0.5100
5      C5      4.4140    0.3828   -0.0389 C.ar     1 ZINC000040955218    0.4000
6      C6      5.8750    0.6173   -0.0520 C.ar     1 ZINC000040955218    0.0200
7      C7      6.7596   -0.4432   -0.0724 C.ar     1 ZINC000040955218   -0.0800
8      C8      8.1363   -0.2372   -0.0849 C.ar     1 ZINC000040955218   -0.0900
9      C9      8.6908    1.0002   -0.0785 C.ar     1 ZINC000040955218   -0.0700
10     C10     7.8751    2.1509   -0.0583 C.ar     1 ZINC000040955218    0.1000
11     N11     8.1031    3.4521   -0.0477 N.2      1 ZINC000040955218   -0.3000
12     N12     6.8773    4.1276   -0.0280 N.pl3    1 ZINC000040955218   -0.4300
13     C13     5.8687    3.2432   -0.0261 C.2      1 ZINC000040955218    0.1000
14     C14     6.4140    1.9787   -0.0497 C.ar     1 ZINC000040955218   -0.1800
15     N15     3.9642   -0.8693   -0.0409 N.ar     1 ZINC000040955218   -0.5400
16     C16     2.6634   -1.1221   -0.0294 C.ar     1 ZINC000040955218    0.4200
17     N17     2.2015   -2.4283   -0.0312 N.3      1 ZINC000040955218   -0.4700
18     C18     1.3202   -2.6770    1.1190 C.3      1 ZINC000040955218    0.0200
19     C19     0.7864   -4.1100    1.0455 C.3      1 ZINC000040955218    0.0700
20     O20     1.8873   -5.0218    0.9998 O.3      1 ZINC000040955218   -0.3800
21     C21     2.7658   -4.8085   -0.1084 C.3      1 ZINC000040955218    0.0600
22     C22     3.3197   -3.3826   -0.0466 C.3      1 ZINC000040955218    0.0300
23     C23     1.7583   -0.0452   -0.0150 C.ar     1 ZINC000040955218   -0.2800
24     S24     0.0021   -0.0041    0.0020 S.3      1 ZINC000040955218    0.1500
25     H25    -0.9214    2.3467    0.0276 H        1 ZINC000040955218    0.1800
26     H26     1.4008    3.3086    0.0061 H        1 ZINC000040955218    0.1600
27     H27     6.3755   -1.4526   -0.0784 H        1 ZINC000040955218    0.1400
28     H28     8.7890   -1.0976   -0.1001 H        1 ZINC000040955218    0.1300
29     H29     9.7656    1.1057   -0.0884 H        1 ZINC000040955218    0.1300
30     H30     6.7727    5.0919   -0.0167 H        1 ZINC000040955218    0.4400
31     H31     4.8152    3.4808   -0.0120 H        1 ZINC000040955218    0.2000
32     H32     1.8824   -2.5450    2.0435 H        1 ZINC000040955218    0.0700
33     H33     0.4858   -1.9761    1.0964 H        1 ZINC000040955218    0.1000
34     H34     0.1784   -4.3175    1.9261 H        1 ZINC000040955218    0.1100
35     H35     0.1796   -4.2268    0.1476 H        1 ZINC000040955218    0.0700
36     H36     3.5893   -5.5212   -0.0625 H        1 ZINC000040955218    0.1100
37     H37     2.2165   -4.9456   -1.0399 H        1 ZINC000040955218    0.0600
38     H38     3.9447   -3.1968   -0.9201 H        1 ZINC000040955218    0.1000
39     H39     3.9138   -3.2618    0.8592 H        1 ZINC000040955218    0.0700
@<TRIPOS>BOND
1     1     24    1
2     1     2     2
3     1     25    1
4     2     3     1
5     2     26    1
6     3     23    ar
7     3     4     ar
8     4     5     ar
9     5     6     1
10    5     15    ar
11    6     14    ar
12    6     7     ar
13    7     8     ar
14    7     27    1
15    8     9     ar
16    8     28    1
17    9     10    ar
18    9     29    1
19    10    14    ar
20    10    11    2
21    11    12    1
22    12    13    1
23    12    30    1
24    13    14    2
25    13    31    1
26    15    16    ar
27    16    17    1
28    16    23    ar
29    17    22    1
30    17    18    1
31    18    19    1
32    18    32    1
33    18    33    1
34    19    20    1
35    19    34    1
36    19    35    1
37    20    21    1
38    21    22    1
39    21    36    1
40    21    37    1
41    22    38    1
42    22    39    1
43    23    24    1
@<TRIPOS>SUBSTRUCTURE
1   ZINC000040955218 1     RESIDUE    1   A     ZIN   1
