@<TRIPOS>MOLECULE
ZINC000004769727
87    94    1     0     0
SMALL
USER_CHARGES
@<TRIPOS>ATOM
1      O1      0.2542    1.3751   -0.1989 O.3      1 ZINC000004769727   -0.5600
2      C2      0.1178   -0.0582   -0.0959 C.3      1 ZINC000004769727    0.1800
3      C3      0.9270   -0.4681    1.1185 C.2      1 ZINC000004769727   -0.1900
4      C4      0.7558   -1.6588    1.6762 C.2      1 ZINC000004769727   -0.0200
5      C5      1.5687   -2.0495    2.8536 C.ar     1 ZINC000004769727    0.1100
6      N6      0.9683   -2.4102    3.9804 N.ar     1 ZINC000004769727   -0.4400
7      C7      1.6438   -2.7667    5.0567 C.ar     1 ZINC000004769727    0.0600
8      C8      3.0235   -2.7813    5.0623 C.ar     1 ZINC000004769727   -0.0900
9      C9      3.7083   -2.4111    3.9038 C.ar     1 ZINC000004769727   -0.0600
10     C10     2.9689   -2.0415    2.7692 C.ar     1 ZINC000004769727    0.1100
11     N11     3.8522   -1.7204    1.7601 N.pl3    1 ZINC000004769727   -0.6100
12     C12     5.1557   -1.8681    2.1981 C.ar     1 ZINC000004769727    0.1400
13     C13     5.1277   -2.3034    3.5325 C.ar     1 ZINC000004769727   -0.1100
14     C14     6.3210   -2.5302    4.2156 C.ar     1 ZINC000004769727   -0.0500
15     C15     7.5251   -2.3261    3.5780 C.ar     1 ZINC000004769727   -0.1400
16     C16     7.5540   -1.8956    2.2600 C.ar     1 ZINC000004769727   -0.0700
17     C17     6.3824   -1.6717    1.5705 C.ar     1 ZINC000004769727   -0.1400
18     C18    -0.2792   -2.6098    1.1188 C.3      1 ZINC000004769727   -0.0600
19     H19    -0.5614   -3.2826    1.9638 H        1 ZINC000004769727    0.1300
20     C20     0.3122   -3.4919    0.0369 C.3      1 ZINC000004769727   -0.1500
21     C21    -0.7733   -4.2286   -0.7540 C.3      1 ZINC000004769727   -0.0100
22     N22    -1.7256   -3.2248   -1.2436 N.4      1 ZINC000004769727   -0.4000
23     H23    -1.2120   -2.4562   -1.6285 H        1 ZINC000004769727    0.4000
24     C24    -2.4860   -2.7049   -0.0982 C.3      1 ZINC000004769727   -0.0100
25     C25    -1.5252   -1.8408    0.7377 C.3      1 ZINC000004769727   -0.0800
26     C26    -2.2691   -1.4776    2.0438 C.3      1 ZINC000004769727   -0.1300
27     C27    -2.7382   -0.0277    1.8634 C.3      1 ZINC000004769727    0.0600
28     H28    -2.2147    0.5996    2.6029 H        1 ZINC000004769727    0.1500
29     C29    -4.2099    0.0570    2.0823 C.2      1 ZINC000004769727   -0.2000
30     C30    -5.1469    0.5749    1.3935 C.2      1 ZINC000004769727   -0.1000
31     C31    -5.1171    1.2758    0.0799 C.3      1 ZINC000004769727   -0.1200
32     C32    -4.4306    2.6337    0.1565 C.3      1 ZINC000004769727   -0.1300
33     C33    -3.2451    2.6029    1.1133 C.3      1 ZINC000004769727   -0.1600
34     C34    -2.0817    1.8194    0.5063 C.3      1 ZINC000004769727    0.0000
35     N35    -2.3287    0.3942    0.5184 N.4      1 ZINC000004769727   -0.3700
36     H36    -3.1302    0.2093   -0.1070 H        1 ZINC000004769727    0.4100
37     C37    -1.2962   -0.5122    0.0045 C.3      1 ZINC000004769727    0.0600
38     H38    -1.6772   -0.7217   -1.0206 H        1 ZINC000004769727    0.1100
39     C39    -2.5908   -3.7590   -2.2899 C.3      1 ZINC000004769727   -0.0200
40     C40    -1.8197   -3.8897   -3.6008 C.3      1 ZINC000004769727   -0.1600
41     C41    -1.6538   -2.5363   -4.2962 C.3      1 ZINC000004769727   -0.1300
42     C42    -0.2740   -2.4683   -4.9369 C.3      1 ZINC000004769727   -0.1100
43     C43     0.3588   -1.1129   -4.9101 C.2      1 ZINC000004769727   -0.1300
44     C44     0.5177   -0.3942   -3.8281 C.2      1 ZINC000004769727   -0.1700
45     C45     0.0174   -0.9082   -2.5086 C.3      1 ZINC000004769727   -0.1100
46     C46     0.8878   -0.5484   -1.3323 C.3      1 ZINC000004769727   -0.1600
47     H47     1.1697    1.6794   -0.2646 H        1 ZINC000004769727    0.4100
48     H48     1.6516    0.2285    1.5314 H        1 ZINC000004769727    0.1500
49     H49     1.1069   -3.0519    5.9493 H        1 ZINC000004769727    0.1700
50     H50     3.5651   -3.0743    5.9495 H        1 ZINC000004769727    0.1500
51     H51     3.5958   -1.4326    0.8700 H        1 ZINC000004769727    0.4100
52     H52     6.3019   -2.8649    5.2422 H        1 ZINC000004769727    0.1300
53     H53     8.4502   -2.5017    4.1069 H        1 ZINC000004769727    0.1400
54     H54     8.5029   -1.7381    1.7689 H        1 ZINC000004769727    0.1400
55     H55     6.4158   -1.3365    0.5444 H        1 ZINC000004769727    0.1300
56     H56     0.9101   -2.8999   -0.6503 H        1 ZINC000004769727    0.0900
57     H57     0.9647   -4.2378    0.5071 H        1 ZINC000004769727    0.1300
58     H58    -0.3194   -4.7552   -1.5899 H        1 ZINC000004769727    0.1500
59     H59    -1.2845   -4.9337   -0.1002 H        1 ZINC000004769727    0.1500
60     H60    -3.3134   -2.0886   -0.4513 H        1 ZINC000004769727    0.1300
61     H61    -2.8671   -3.5259    0.5068 H        1 ZINC000004769727    0.1700
62     H62    -3.1237   -2.1401    2.1765 H        1 ZINC000004769727    0.1200
63     H63    -1.5924   -1.5593    2.8909 H        1 ZINC000004769727    0.1400
64     H64    -4.5513   -0.4124    3.0043 H        1 ZINC000004769727    0.1500
65     H65    -6.1365    0.4891    1.8448 H        1 ZINC000004769727    0.1300
66     H66    -4.6438    0.6567   -0.6769 H        1 ZINC000004769727    0.0600
67     H67    -6.1574    1.4383   -0.2482 H        1 ZINC000004769727    0.1000
68     H68    -4.0821    2.9240   -0.8404 H        1 ZINC000004769727    0.0800
69     H69    -5.1505    3.3847    0.4993 H        1 ZINC000004769727    0.1000
70     H70    -2.9066    3.6323    1.2966 H        1 ZINC000004769727    0.1200
71     H71    -3.5310    2.1710    2.0686 H        1 ZINC000004769727    0.1000
72     H72    -1.9121    2.1637   -0.5113 H        1 ZINC000004769727    0.1400
73     H73    -1.2022    2.0336    1.1246 H        1 ZINC000004769727    0.1400
74     H74    -2.9637   -4.7415   -1.9898 H        1 ZINC000004769727    0.1500
75     H75    -3.4411   -3.0891   -2.4378 H        1 ZINC000004769727    0.1300
76     H76    -0.8332   -4.3069   -3.3963 H        1 ZINC000004769727    0.0900
77     H77    -2.3587   -4.5690   -4.2655 H        1 ZINC000004769727    0.1300
78     H78    -2.4165   -2.4416   -5.0743 H        1 ZINC000004769727    0.0900
79     H79    -1.7845   -1.7330   -3.5796 H        1 ZINC000004769727    0.0600
80     H80     0.3850   -3.1739   -4.4272 H        1 ZINC000004769727    0.0800
81     H81    -0.3622   -2.7899   -5.9812 H        1 ZINC000004769727    0.0900
82     H82     0.7122   -0.6835   -5.8497 H        1 ZINC000004769727    0.1200
83     H83     1.0110    0.5658   -3.8851 H        1 ZINC000004769727    0.1300
84     H84    -0.9881   -0.5207   -2.3953 H        1 ZINC000004769727    0.0700
85     H85    -0.0014   -2.0006   -2.5959 H        1 ZINC000004769727    0.0600
86     H86     1.5708    0.2640   -1.6434 H        1 ZINC000004769727    0.1100
87     H87     1.5275   -1.3884   -1.0563 H        1 ZINC000004769727    0.0900
@<TRIPOS>BOND
1     1     2     1
2     1     47    1
3     2     37    1
4     2     46    1
5     2     3     1
6     3     4     2
7     3     48    1
8     4     5     1
9     4     18    1
10    5     10    ar
11    5     6     ar
12    6     7     ar
13    7     8     ar
14    7     49    1
15    8     9     ar
16    8     50    1
17    9     13    1
18    9     10    ar
19    10    11    1
20    11    12    1
21    11    51    1
22    12    17    ar
23    12    13    ar
24    13    14    ar
25    14    15    ar
26    14    52    1
27    15    16    ar
28    15    53    1
29    16    17    ar
30    16    54    1
31    17    55    1
32    18    19    1
33    18    25    1
34    18    20    1
35    20    21    1
36    20    56    1
37    20    57    1
38    21    22    1
39    21    58    1
40    21    59    1
41    22    23    1
42    22    24    1
43    22    39    1
44    24    25    1
45    24    60    1
46    24    61    1
47    25    37    1
48    25    26    1
49    26    27    1
50    26    62    1
51    26    63    1
52    27    28    1
53    27    35    1
54    27    29    1
55    29    30    2
56    29    64    1
57    30    31    1
58    30    65    1
59    31    32    1
60    31    66    1
61    31    67    1
62    32    33    1
63    32    68    1
64    32    69    1
65    33    34    1
66    33    70    1
67    33    71    1
68    34    35    1
69    34    72    1
70    34    73    1
71    35    36    1
72    35    37    1
73    37    38    1
74    39    40    1
75    39    74    1
76    39    75    1
77    40    41    1
78    40    76    1
79    40    77    1
80    41    42    1
81    41    78    1
82    41    79    1
83    42    43    1
84    42    80    1
85    42    81    1
86    43    44    2
87    43    82    1
88    44    45    1
89    44    83    1
90    45    46    1
91    45    84    1
92    45    85    1
93    46    86    1
94    46    87    1
@<TRIPOS>SUBSTRUCTURE
1   ZINC000004769727 1     RESIDUE    1   A     ZIN   1
