@<TRIPOS>MOLECULE
ZINC000003874317
32    34    1     0     0
SMALL
USER_CHARGES
@<TRIPOS>ATOM
1      O1     -0.8966    1.1509   -0.0627 O.2      1 ZINC000003874317   -0.5300
2      C2     -0.5657    2.3260   -0.0198 C.2      1 ZINC000003874317    0.4200
3      C3     -1.5284    3.3442    0.0373 C.2      1 ZINC000003874317   -0.4900
4      C4     -1.1437    4.6666    0.0803 C.2      1 ZINC000003874317    0.3200
5      O5     -2.1013    5.6231    0.1437 O.3      1 ZINC000003874317   -0.6800
6      C6      0.2005    5.0584    0.0615 C.2      1 ZINC000003874317   -0.1400
7      C7      1.2033    4.1384    0.0028 C.2      1 ZINC000003874317    0.1000
8      O8      2.4970    4.5344   -0.0412 O.3      1 ZINC000003874317   -0.2900
9      C9      3.4781    3.6588    0.5261 C.3      1 ZINC000003874317    0.1100
10     C10     3.3163    3.6169    2.0238 C.ar     1 ZINC000003874317   -0.1000
11     C11     4.2968    3.0372    2.8070 C.ar     1 ZINC000003874317   -0.1300
12     C12     4.1519    2.9970    4.1855 C.ar     1 ZINC000003874317    0.0900
13     O13     5.1173    2.4268    4.9552 O.3      1 ZINC000003874317   -0.4800
14     C14     3.0191    3.5406    4.7794 C.ar     1 ZINC000003874317    0.0600
15     O15     2.8735    3.5035    6.1321 O.3      1 ZINC000003874317   -0.4700
16     C16     2.0357    4.1225    3.9884 C.ar     1 ZINC000003874317    0.1100
17     O17     0.9256    4.6562    4.5649 O.3      1 ZINC000003874317   -0.4700
18     C18     2.1906    4.1633    2.6110 C.ar     1 ZINC000003874317   -0.1200
19     C19     3.2675    2.2721   -0.0498 C.2      1 ZINC000003874317    0.3500
20     O20     4.1869    1.6157   -0.4780 O.2      1 ZINC000003874317   -0.4200
21     C21     1.8642    1.7590   -0.0600 C.2      1 ZINC000003874317    0.0800
22     O22     1.5912    0.4407   -0.1002 O.3      1 ZINC000003874317   -0.4100
23     C23     0.8571    2.7131   -0.0203 C.2      1 ZINC000003874317   -0.1600
24     H24    -2.5780    3.0902    0.0472 H        1 ZINC000003874317    0.1100
25     H25     0.4468    6.1094    0.0936 H        1 ZINC000003874317    0.1300
26     H26     4.4773    4.0141    0.2742 H        1 ZINC000003874317    0.1600
27     H27     5.1766    2.6147    2.3446 H        1 ZINC000003874317    0.1400
28     H28     5.8051    3.0424    5.2435 H        1 ZINC000003874317    0.3900
29     H29     3.2402    4.2732    6.5884 H        1 ZINC000003874317    0.3800
30     H30     1.0136    5.5908    4.7971 H        1 ZINC000003874317    0.3900
31     H31     1.4270    4.6157    1.9957 H        1 ZINC000003874317    0.1600
32     H32     2.3460   -0.1634   -0.1223 H        1 ZINC000003874317    0.4000
@<TRIPOS>BOND
1     1     2     2
2     2     23    1
3     2     3     1
4     3     4     2
5     3     24    1
6     4     5     1
7     4     6     1
8     6     7     2
9     6     25    1
10    7     23    1
11    7     8     1
12    8     9     1
13    9     10    1
14    9     19    1
15    9     26    1
16    10    18    ar
17    10    11    ar
18    11    12    ar
19    11    27    1
20    12    13    1
21    12    14    ar
22    13    28    1
23    14    15    1
24    14    16    ar
25    15    29    1
26    16    17    1
27    16    18    ar
28    17    30    1
29    18    31    1
30    19    20    2
31    19    21    1
32    21    22    1
33    21    23    2
34    22    32    1
@<TRIPOS>SUBSTRUCTURE
1   ZINC000003874317 1     RESIDUE    1   A     ZIN   1
