@<TRIPOS>MOLECULE
ZINC000000692350
48    51    1     0     0
SMALL
USER_CHARGES
@<TRIPOS>ATOM
1      C1      2.9267   -6.5994   -2.3060 C.3      1 ZINC000000692350    0.0300
2      O2      2.0828   -5.6752   -1.6163 O.3      1 ZINC000000692350   -0.3200
3      C3      0.7643   -5.9943   -1.5229 C.ar     1 ZINC000000692350    0.0900
4      C4      0.2955   -7.1753   -2.0790 C.ar     1 ZINC000000692350   -0.1700
5      C5     -1.0439   -7.4994   -1.9841 C.ar     1 ZINC000000692350   -0.1000
6      C6     -1.9199   -6.6441   -1.3323 C.ar     1 ZINC000000692350    0.0900
7      O7     -3.2385   -6.9630   -1.2393 O.3      1 ZINC000000692350   -0.2900
8      C8     -4.0834   -6.0362   -0.5543 C.3      1 ZINC000000692350    0.0400
9      C9     -5.4987   -6.5538   -0.5515 C.2      1 ZINC000000692350    0.5100
10     O10    -5.7583   -7.6123   -1.0837 O.2      1 ZINC000000692350   -0.4900
11     N11    -6.4759   -5.8406    0.0425 N.am     1 ZINC000000692350   -0.6700
12     C12    -7.8048   -6.2721   -0.0380 C.ar     1 ZINC000000692350    0.1400
13     C13    -8.8329   -5.3417   -0.1300 C.ar     1 ZINC000000692350   -0.1100
14     C14   -10.1475   -5.7625   -0.2102 C.ar     1 ZINC000000692350   -0.1100
15     C15   -10.4477   -7.1090   -0.1991 C.ar     1 ZINC000000692350   -0.0600
16     C16    -9.4217   -8.0524   -0.1069 C.ar     1 ZINC000000692350   -0.0500
17     C17    -9.7399   -9.4948   -0.0953 C.2      1 ZINC000000692350    0.4100
18     N18   -10.9949   -9.8591   -0.1781 N.2      1 ZINC000000692350   -0.5100
19     C19   -11.3443  -11.1684   -0.1431 C.ar     1 ZINC000000692350    0.1500
20     C20   -12.6257  -11.6126   -0.4657 C.ar     1 ZINC000000692350   -0.1000
21     C21   -12.9142  -12.9589   -0.4013 C.ar     1 ZINC000000692350   -0.0700
22     C22   -11.9471  -13.8787   -0.0193 C.ar     1 ZINC000000692350   -0.1300
23     C23   -10.6707  -13.4638    0.3024 C.ar     1 ZINC000000692350   -0.0300
24     C24   -10.3594  -12.1119    0.2399 C.ar     1 ZINC000000692350   -0.2300
25     C25    -9.0205  -11.5826    0.5544 C.2      1 ZINC000000692350    0.5300
26     O26    -8.2341  -12.1829    1.2618 O.2      1 ZINC000000692350   -0.4200
27     O27    -8.7249  -10.3773   -0.0053 O.3      1 ZINC000000692350   -0.3100
28     C28    -8.0949   -7.6275   -0.0318 C.ar     1 ZINC000000692350   -0.0700
29     C29    -1.4509   -5.4638   -0.7750 C.ar     1 ZINC000000692350   -0.1700
30     C30    -0.1108   -5.1416   -0.8665 C.ar     1 ZINC000000692350   -0.1100
31     H31     3.9504   -6.2251   -2.3079 H        1 ZINC000000692350    0.1000
32     H32     2.8942   -7.5661   -1.8034 H        1 ZINC000000692350    0.0600
33     H33     2.5792   -6.7121   -3.3330 H        1 ZINC000000692350    0.0600
34     H34     0.9776   -7.8413   -2.5865 H        1 ZINC000000692350    0.1400
35     H35    -1.4091   -8.4186   -2.4178 H        1 ZINC000000692350    0.1400
36     H36    -3.7372   -5.9194    0.4726 H        1 ZINC000000692350    0.1000
37     H37    -4.0503   -5.0715   -1.0608 H        1 ZINC000000692350    0.1000
38     H38    -6.2582   -5.0282    0.5258 H        1 ZINC000000692350    0.4200
39     H39    -8.6043   -4.2862   -0.1384 H        1 ZINC000000692350    0.1400
40     H40   -10.9422   -5.0346   -0.2815 H        1 ZINC000000692350    0.1400
41     H41   -11.4759   -7.4337   -0.2612 H        1 ZINC000000692350    0.1500
42     H42   -13.3870  -10.9068   -0.7636 H        1 ZINC000000692350    0.1500
43     H43   -13.9069  -13.3030   -0.6513 H        1 ZINC000000692350    0.1400
44     H44   -12.1960  -14.9286    0.0270 H        1 ZINC000000692350    0.1400
45     H45    -9.9219  -14.1830    0.5995 H        1 ZINC000000692350    0.1400
46     H46    -7.2972   -8.3521    0.0396 H        1 ZINC000000692350    0.1500
47     H47    -2.1329   -4.7980   -0.2672 H        1 ZINC000000692350    0.1400
48     H48     0.2545   -4.2225   -0.4326 H        1 ZINC000000692350    0.1400
@<TRIPOS>BOND
1     1     2     1
2     1     31    1
3     1     32    1
4     1     33    1
5     2     3     1
6     3     30    ar
7     3     4     ar
8     4     5     ar
9     4     34    1
10    5     6     ar
11    5     35    1
12    6     7     1
13    6     29    ar
14    7     8     1
15    8     9     1
16    8     36    1
17    8     37    1
18    9     10    2
19    9     11    am
20    11    12    1
21    11    38    1
22    12    28    ar
23    12    13    ar
24    13    14    ar
25    13    39    1
26    14    15    ar
27    14    40    1
28    15    16    ar
29    15    41    1
30    16    17    1
31    16    28    ar
32    17    27    1
33    17    18    2
34    18    19    1
35    19    24    ar
36    19    20    ar
37    20    21    ar
38    20    42    1
39    21    22    ar
40    21    43    1
41    22    23    ar
42    22    44    1
43    23    24    ar
44    23    45    1
45    24    25    1
46    25    26    2
47    25    27    1
48    28    46    1
49    29    30    ar
50    29    47    1
51    30    48    1
@<TRIPOS>SUBSTRUCTURE
1   ZINC000000692350 1     RESIDUE    1   A     ZIN   1
