@<TRIPOS>MOLECULE
ZINC000019314561
62    65    1     0     0
SMALL
USER_CHARGES
@<TRIPOS>ATOM
1      C1     -0.0184    1.5028    0.0103 C.3      1 ZINC000019314561   -0.1200
2      C2      0.0021   -0.0041    0.0020 C.2      1 ZINC000019314561    0.2400
3      C3     -1.1555   -0.6874    0.0038 C.2      1 ZINC000019314561   -0.2600
4      C4     -2.3795    0.0214    0.0215 C.2      1 ZINC000019314561    0.5200
5      O5     -2.3779    1.2381    0.0349 O.2      1 ZINC000019314561   -0.5200
6      O6     -3.5491   -0.6518    0.0235 O.3      1 ZINC000019314561   -0.3400
7      C7     -4.7464    0.1279    0.0417 C.3      1 ZINC000019314561    0.0900
8      C8     -5.1854    0.4221   -1.3941 C.3      1 ZINC000019314561   -0.1300
9      C9     -6.4674    1.2570   -1.3746 C.3      1 ZINC000019314561   -0.1200
10     C10    -7.5707    0.4805   -0.6530 C.3      1 ZINC000019314561   -0.1200
11     C11    -7.1317    0.1863    0.7829 C.3      1 ZINC000019314561   -0.1200
12     C12    -5.8497   -0.6485    0.7633 C.3      1 ZINC000019314561   -0.1200
13     C13    -1.1740   -2.1877   -0.0131 C.3      1 ZINC000019314561    0.0800
14     H14    -1.9392   -2.5440    0.6765 H        1 ZINC000019314561    0.1000
15     C15    -1.5025   -2.6629   -1.4050 C.ar     1 ZINC000019314561   -0.0100
16     C16    -0.6779   -2.3273   -2.4625 C.ar     1 ZINC000019314561   -0.1100
17     C17    -0.9792   -2.7631   -3.7393 C.ar     1 ZINC000019314561   -0.0600
18     C18    -2.1049   -3.5350   -3.9584 C.ar     1 ZINC000019314561   -0.0500
19     N19    -2.4278   -4.0013   -5.3256 N.pl3    1 ZINC000019314561    0.0300
20     O20    -1.7017   -3.7049   -6.2576 O.2      1 ZINC000019314561   -0.1600
21     O21    -3.4196   -4.6813   -5.5188 O.2      1 ZINC000019314561   -0.1600
22     C22    -2.9287   -3.8717   -2.9007 C.ar     1 ZINC000019314561   -0.0500
23     C23    -2.6253   -3.4390   -1.6233 C.ar     1 ZINC000019314561   -0.0900
24     C24     0.1637   -2.7497    0.3981 C.2      1 ZINC000019314561   -0.2700
25     C25     1.2716   -1.9790    0.3760 C.2      1 ZINC000019314561    0.2200
26     C26     2.6152   -2.5380    0.7738 C.3      1 ZINC000019314561   -0.0900
27     C27     2.4255   -3.6316    1.8273 C.3      1 ZINC000019314561   -0.0500
28     C28     3.7834   -4.2347    2.1924 C.3      1 ZINC000019314561   -0.1400
29     C29     1.7756   -3.0342    3.0770 C.3      1 ZINC000019314561   -0.1500
30     C30     1.5198   -4.7197    1.2412 C.3      1 ZINC000019314561   -0.1600
31     C31     0.2230   -4.0943    0.8048 C.2      1 ZINC000019314561    0.4000
32     O32    -0.7914   -4.7631    0.8042 O.2      1 ZINC000019314561   -0.4600
33     N33     1.1975   -0.6666   -0.0130 N.pl3    1 ZINC000019314561   -0.6300
34     H34     1.0042    1.8801    0.0026 H        1 ZINC000019314561    0.0600
35     H35    -0.5455    1.8639   -0.8728 H        1 ZINC000019314561    0.1000
36     H36    -0.5286    1.8543    0.9071 H        1 ZINC000019314561    0.1100
37     H37    -4.5610    1.0662    0.5645 H        1 ZINC000019314561    0.0800
38     H38    -4.3994    0.9753   -1.9082 H        1 ZINC000019314561    0.0700
39     H39    -5.3708   -0.5162   -1.9169 H        1 ZINC000019314561    0.0700
40     H40    -6.2820    2.1953   -0.8519 H        1 ZINC000019314561    0.0600
41     H41    -6.7801    1.4666   -2.3975 H        1 ZINC000019314561    0.0700
42     H42    -8.4840    1.0753   -0.6391 H        1 ZINC000019314561    0.0700
43     H43    -7.7561   -0.4578   -1.1757 H        1 ZINC000019314561    0.0700
44     H44    -6.9463    1.1246    1.3056 H        1 ZINC000019314561    0.0600
45     H45    -7.9178   -0.3668    1.2970 H        1 ZINC000019314561    0.0700
46     H46    -6.0351   -1.5869    0.2406 H        1 ZINC000019314561    0.0700
47     H47    -5.5370   -0.8581    1.7863 H        1 ZINC000019314561    0.0700
48     H48     0.2016   -1.7242   -2.2913 H        1 ZINC000019314561    0.1300
49     H49    -0.3354   -2.5003   -4.5656 H        1 ZINC000019314561    0.1500
50     H50    -3.8080   -4.4750   -3.0719 H        1 ZINC000019314561    0.1500
51     H51    -3.2689   -3.7021   -0.7970 H        1 ZINC000019314561    0.1500
52     H52     3.1066   -2.9600   -0.1029 H        1 ZINC000019314561    0.1000
53     H53     3.2326   -1.7400    1.1862 H        1 ZINC000019314561    0.0900
54     H54     4.4314   -3.4550    2.5928 H        1 ZINC000019314561    0.0600
55     H55     3.6452   -5.0131    2.9428 H        1 ZINC000019314561    0.0700
56     H56     4.2408   -4.6656    1.3019 H        1 ZINC000019314561    0.0600
57     H57     0.8056   -2.6115    2.8153 H        1 ZINC000019314561    0.0600
58     H58     1.6417   -3.8151    3.8255 H        1 ZINC000019314561    0.0700
59     H59     2.4166   -2.2503    3.4804 H        1 ZINC000019314561    0.0600
60     H60     2.0101   -5.1793    0.3831 H        1 ZINC000019314561    0.1000
61     H61     1.3223   -5.4774    1.9995 H        1 ZINC000019314561    0.1000
62     H62     2.0019   -0.2030   -0.2940 H        1 ZINC000019314561    0.4200
@<TRIPOS>BOND
1     1     2     1
2     1     34    1
3     1     35    1
4     1     36    1
5     2     33    1
6     2     3     2
7     3     4     1
8     3     13    1
9     4     5     2
10    4     6     1
11    6     7     1
12    7     12    1
13    7     8     1
14    7     37    1
15    8     9     1
16    8     38    1
17    8     39    1
18    9     10    1
19    9     40    1
20    9     41    1
21    10    11    1
22    10    42    1
23    10    43    1
24    11    12    1
25    11    44    1
26    11    45    1
27    12    46    1
28    12    47    1
29    13    14    1
30    13    15    1
31    13    24    1
32    15    23    ar
33    15    16    ar
34    16    17    ar
35    16    48    1
36    17    18    ar
37    17    49    1
38    18    19    1
39    18    22    ar
40    19    20    2
41    19    21    2
42    22    23    ar
43    22    50    1
44    23    51    1
45    24    31    1
46    24    25    2
47    25    26    1
48    25    33    1
49    26    27    1
50    26    52    1
51    26    53    1
52    27    28    1
53    27    29    1
54    27    30    1
55    28    54    1
56    28    55    1
57    28    56    1
58    29    57    1
59    29    58    1
60    29    59    1
61    30    31    1
62    30    60    1
63    30    61    1
64    31    32    2
65    33    62    1
@<TRIPOS>SUBSTRUCTURE
1   ZINC000019314561 1     RESIDUE    1   A     ZIN   1
