@<TRIPOS>MOLECULE
ZINC000000077345
  33   35    0    0    0
SMALL
USER_CHARGES
NO_NAME
@<TRIPOS>ATOM
    1 C1       -0.0184     1.5028     0.0103 C.3    1 <0>      -0.1000
    2 C2        0.0021    -0.0041     0.0020 C.2    1 <0>      -0.1100
    3 C3        0.0085    -0.7990    -1.0807 C.2    1 <0>      -0.1600
    4 C4        0.0304    -2.1937    -0.5869 C.2    1 <0>       0.5400
    5 O5        0.0418    -3.1916    -1.2783 O.2    1 <0>      -0.4500
    6 N6        0.0359    -2.1682     0.7580 N.am   1 <0>      -0.5900
    7 C7        0.0571    -3.3489     1.6250 C.3    1 <0>       0.1200
    8 C8        1.5068    -3.7391     1.9200 C.3    1 <0>      -0.0600
    9 C9        1.5286    -4.9536     2.8119 C.2    1 <0>      -0.1800
   10 C10       1.6232    -4.9593     4.1509 C.2    1 <0>       0.0600
   11 N11       1.6122    -6.2469     4.6140 N.pl3  1 <0>      -0.5900
   12 C12       1.5075    -7.1235     3.5573 C.ar   1 <0>       0.0900
   13 C13       1.4541    -8.5102     3.4651 C.ar   1 <0>      -0.1300
   14 C14       1.3465    -9.1103     2.2294 C.ar   1 <0>      -0.1000
   15 C15       1.2907    -8.3447     1.0732 C.ar   1 <0>      -0.1400
   16 C16       1.3416    -6.9807     1.1406 C.ar   1 <0>      -0.0700
   17 C17       1.4441    -6.3516     2.3826 C.ar   1 <0>      -0.1000
   18 C18       0.0254    -0.8926     1.1849 C.2    1 <0>       0.5500
   19 O19       0.0269    -0.5318     2.3441 O.2    1 <0>      -0.4500
   20 H20       1.0042     1.8801     0.0026 H      1 <0>       0.0900
   21 H21      -0.5455     1.8639    -0.8728 H      1 <0>       0.0900
   22 H22      -0.5286     1.8543     0.9071 H      1 <0>       0.0800
   23 H23      -0.0008    -0.4814    -2.1129 H      1 <0>       0.1800
   24 H24      -0.4557    -3.1224     2.5599 H      1 <0>       0.1000
   25 H25      -0.4472    -4.1759     1.1251 H      1 <0>       0.1000
   26 H26       2.0195    -3.9655     0.9852 H      1 <0>       0.0800
   27 H27       2.0111    -2.9121     2.4199 H      1 <0>       0.0800
   28 H28       1.6975    -4.0782     4.7710 H      1 <0>       0.1700
   29 H29       1.6695    -6.5038     5.5476 H      1 <0>       0.4200
   30 H30       1.4971    -9.1147     4.3591 H      1 <0>       0.1200
   31 H31       1.3055   -10.1873     2.1599 H      1 <0>       0.1300
   32 H32       1.2068    -8.8307     0.1124 H      1 <0>       0.1200
   33 H33       1.2976    -6.3914     0.2367 H      1 <0>       0.1200
@<TRIPOS>BOND
   1    1    2 1
   2    1   20 1
   3    1   21 1
   4    1   22 1
   5    2   18 1
   6    2    3 2
   7    3    4 1
   8    3   23 1
   9    4    5 2
  10    4    6 am
  11    6    7 1
  12    6   18 am
  13    7    8 1
  14    7   24 1
  15    7   25 1
  16    8    9 1
  17    8   26 1
  18    8   27 1
  19    9   17 1
  20    9   10 2
  21   10   11 1
  22   10   28 1
  23   11   12 1
  24   11   29 1
  25   12   17 ar
  26   12   13 ar
  27   13   14 ar
  28   13   30 1
  29   14   15 ar
  30   14   31 1
  31   15   16 ar
  32   15   32 1
  33   16   17 ar
  34   16   33 1
  35   18   19 2
