@<TRIPOS>MOLECULE
ZINC000068199944
  31   32    0    0    0
SMALL
USER_CHARGES
NO_NAME
@<TRIPOS>ATOM
    1 C1       -0.0173     1.4248     0.0099 C.3    1 <0>       0.0300
    2 O2        0.0021    -0.0041     0.0020 O.3    1 <0>      -0.3500
    3 C3        0.6518    -0.5703    -1.1379 C.3    1 <0>       0.0800
    4 C4        0.6131    -2.0967    -1.0411 C.3    1 <0>       0.0700
    5 C5       -0.8351    -2.5823    -0.9526 C.3    1 <0>       0.1000
    6 O6       -1.4548    -2.0235     0.2075 O.3    1 <0>      -0.5400
    7 C7        1.4020    -2.5658     0.1737 C.2    1 <0>       0.3400
    8 O8        1.1161    -2.2504     1.3038 O.2    1 <0>      -0.4000
    9 C9        2.5850    -3.4695    -0.1607 C.3    1 <0>      -0.1400
   10 C10       2.0195    -4.6712    -0.9355 C.3    1 <0>      -0.1500
   11 C11       1.2335    -4.1639    -2.1454 C.3    1 <0>       0.0400
   12 N12       1.2810    -2.6982    -2.2124 N.3    1 <0>      -0.5100
   13 C13       2.6654    -2.2228    -2.3256 C.3    1 <0>       0.0400
   14 C14       3.4892    -2.6788    -1.1205 C.3    1 <0>      -0.1500
   15 H15       1.0053     1.8021     0.0021 H      1 <0>       0.0400
   16 H16      -0.5445     1.7859    -0.8732 H      1 <0>       0.0400
   17 H17      -0.5275     1.7763     0.9067 H      1 <0>       0.0900
   18 H18       0.1385    -0.2506    -2.0447 H      1 <0>       0.0700
   19 H19       1.6883    -0.2344    -1.1694 H      1 <0>       0.0500
   20 H20      -1.3792    -2.2668    -1.8428 H      1 <0>       0.0600
   21 H21      -0.8500    -3.6701    -0.8841 H      1 <0>       0.0500
   22 H22      -2.3769    -2.2892     0.3274 H      1 <0>       0.3800
   23 H23       3.1226    -3.7767     0.7363 H      1 <0>       0.1100
   24 H24       2.8393    -5.3051    -1.2734 H      1 <0>       0.0800
   25 H25       1.3582    -5.2448    -0.2860 H      1 <0>       0.0700
   26 H26       1.6661    -4.5798    -3.0553 H      1 <0>       0.0900
   27 H27       0.1958    -4.4867    -2.0611 H      1 <0>       0.0800
   28 H28       3.1096    -2.6229    -3.2371 H      1 <0>       0.0900
   29 H29       2.6690    -1.1338    -2.3725 H      1 <0>       0.0800
   30 H30       3.8937    -1.8076    -0.6052 H      1 <0>       0.0700
   31 H31       4.3069    -3.3155    -1.4582 H      1 <0>       0.0800
@<TRIPOS>BOND
   1    1    2 1
   2    1   15 1
   3    1   16 1
   4    1   17 1
   5    2    3 1
   6    3    4 1
   7    3   18 1
   8    3   19 1
   9    4   12 1
  10    4    5 1
  11    4    7 1
  12    5    6 1
  13    5   20 1
  14    5   21 1
  15    6   22 1
  16    7    8 2
  17    7    9 1
  18    9   14 1
  19    9   10 1
  20    9   23 1
  21   10   11 1
  22   10   24 1
  23   10   25 1
  24   11   12 1
  25   11   26 1
  26   11   27 1
  27   12   13 1
  28   13   14 1
  29   13   28 1
  30   13   29 1
  31   14   30 1
  32   14   31 1
