@<TRIPOS>MOLECULE
ZINC000006475935
37    41    1     0     0
SMALL
USER_CHARGES
@<TRIPOS>ATOM
1      O1      0.0021   -0.0041    0.0020 O.2      1 ZINC000006475935   -0.4600
2      C2     -0.0144    1.2107    0.0087 C.2      1 ZINC000006475935    0.5800
3      N3     -1.1169    1.9811    0.0292 N.am     1 ZINC000006475935   -0.6800
4      C4     -0.7922    3.2865    0.0318 C.2      1 ZINC000006475935    0.5800
5      O5     -1.5786    4.2126    0.0486 O.2      1 ZINC000006475935   -0.4500
6      C6      0.6762    3.4058    0.0109 C.ar     1 ZINC000006475935   -0.1600
7      C7      1.1717    2.0885    0.0021 C.ar     1 ZINC000006475935   -0.0800
8      C8      2.5498    1.8672   -0.0173 C.ar     1 ZINC000006475935   -0.0400
9      C9      3.4395    2.9618   -0.0281 C.ar     1 ZINC000006475935    0.1800
10     C10     2.9409    4.2580   -0.0193 C.ar     1 ZINC000006475935   -0.1100
11     C11     1.5669    4.4864    0.0038 C.ar     1 ZINC000006475935    0.0700
12     C12     1.0474    5.8738    0.0130 C.ar     1 ZINC000006475935   -0.0700
13     C13     0.0564    6.2563   -0.8906 C.ar     1 ZINC000006475935   -0.0700
14     C14    -0.4239    7.5498   -0.8769 C.ar     1 ZINC000006475935   -0.1200
15     C15     0.0761    8.4666    0.0305 C.ar     1 ZINC000006475935   -0.1100
16     C16     1.0596    8.0933    0.9291 C.ar     1 ZINC000006475935   -0.1200
17     C17     1.5433    6.8010    0.9292 C.ar     1 ZINC000006475935   -0.1000
18     N18     4.7300    2.4707   -0.0466 N.pl3    1 ZINC000006475935   -0.6100
19     C19     4.7180    1.0855   -0.0485 C.ar     1 ZINC000006475935    0.1400
20     C20     3.3829    0.6536   -0.0306 C.ar     1 ZINC000006475935   -0.1000
21     C21     3.0895   -0.7098   -0.0281 C.ar     1 ZINC000006475935   -0.0800
22     C22     4.1187   -1.6324   -0.0433 C.ar     1 ZINC000006475935    0.0800
23     O23     3.8373   -2.9629   -0.0414 O.3      1 ZINC000006475935   -0.4900
24     C24     5.4414   -1.2028   -0.0610 C.ar     1 ZINC000006475935   -0.1000
25     C25     5.7408    0.1424   -0.0633 C.ar     1 ZINC000006475935   -0.1300
26     H26    -2.0252    1.6407    0.0404 H        1 ZINC000006475935    0.4300
27     H27     3.6235    5.0949   -0.0272 H        1 ZINC000006475935    0.1500
28     H28    -0.3342    5.5416   -1.5999 H        1 ZINC000006475935    0.1200
29     H29    -1.1913    7.8472   -1.5761 H        1 ZINC000006475935    0.1300
30     H30    -0.3026    9.4780    0.0373 H        1 ZINC000006475935    0.1200
31     H31     1.4462    8.8135    1.6349 H        1 ZINC000006475935    0.1300
32     H32     2.3108    6.5106    1.6313 H        1 ZINC000006475935    0.1300
33     H33     5.5309    3.0178   -0.0569 H        1 ZINC000006475935    0.4300
34     H34     2.0625   -1.0434   -0.0140 H        1 ZINC000006475935    0.1500
35     H35     3.7440   -3.3464   -0.9242 H        1 ZINC000006475935    0.3900
36     H36     6.2404   -1.9294   -0.0724 H        1 ZINC000006475935    0.1400
37     H37     6.7714    0.4651   -0.0775 H        1 ZINC000006475935    0.1300
@<TRIPOS>BOND
1     1     2     2
2     2     7     1
3     2     3     am
4     3     4     am
5     3     26    1
6     4     5     2
7     4     6     1
8     6     11    ar
9     6     7     ar
10    7     8     ar
11    8     20    1
12    8     9     ar
13    9     10    ar
14    9     18    1
15    10    11    ar
16    10    27    1
17    11    12    1
18    12    17    ar
19    12    13    ar
20    13    14    ar
21    13    28    1
22    14    15    ar
23    14    29    1
24    15    16    ar
25    15    30    1
26    16    17    ar
27    16    31    1
28    17    32    1
29    18    19    1
30    18    33    1
31    19    25    ar
32    19    20    ar
33    20    21    ar
34    21    22    ar
35    21    34    1
36    22    23    1
37    22    24    ar
38    23    35    1
39    24    25    ar
40    24    36    1
41    25    37    1
@<TRIPOS>SUBSTRUCTURE
1   ZINC000006475935 1     RESIDUE    1   A     ZIN   1
