@<TRIPOS>MOLECULE
ZINC000008691822
33    36    1     0     0
SMALL
USER_CHARGES
@<TRIPOS>ATOM
1      O1      0.0021   -0.0041    0.0020 O.2      1 ZINC000008691822   -0.5100
2      C2     -0.0144    1.2130    0.0087 C.2      1 ZINC000008691822    0.5500
3      N3     -1.1802    1.9003    0.0292 N.am     1 ZINC000008691822   -0.6500
4      C4     -1.1823    3.2589    0.0364 C.2      1 ZINC000008691822    0.3900
5      C5     -2.5100    3.9715    0.0599 C.3      1 ZINC000008691822   -0.0200
6      C6     -2.2806    5.4609    0.0644 C.2      1 ZINC000008691822   -0.0600
7      C7     -2.2464    6.1701    1.1751 C.2      1 ZINC000008691822   -0.1700
8      S8     -1.9622    7.8674    0.8420 S.3      1 ZINC000008691822    0.1100
9      C9     -1.8885    7.5844   -0.8928 C.ar     1 ZINC000008691822   -0.1400
10     C10    -1.6798    8.4754   -1.9496 C.ar     1 ZINC000008691822   -0.0700
11     C11    -1.6624    8.0220   -3.2472 C.ar     1 ZINC000008691822   -0.1000
12     C12    -1.8521    6.6727   -3.5182 C.ar     1 ZINC000008691822   -0.0300
13     Cl13   -1.8282    6.1112   -5.1607 Cl       1 ZINC000008691822   -0.0600
14     C14    -2.0577    5.7810   -2.4957 C.ar     1 ZINC000008691822   -0.0700
15     C15    -2.0741    6.2244   -1.1557 C.ar     1 ZINC000008691822   -0.0400
16     N16    -0.0993    3.9748    0.0245 N.2      1 ZINC000008691822   -0.5000
17     C17     1.1309    3.4032    0.0037 C.ar     1 ZINC000008691822    0.1500
18     C18     2.2958    4.1724   -0.0096 C.ar     1 ZINC000008691822   -0.1100
19     C19     3.5239    3.5498   -0.0312 C.ar     1 ZINC000008691822   -0.0700
20     C20     3.6190    2.1646   -0.0404 C.ar     1 ZINC000008691822   -0.1400
21     C21     2.4835    1.3839   -0.0276 C.ar     1 ZINC000008691822   -0.0400
22     C22     1.2316    1.9940    0.0010 C.ar     1 ZINC000008691822   -0.2000
23     H23    -2.0220    1.4184    0.0386 H        1 ZINC000008691822    0.4200
24     H24    -3.0863    3.6953   -0.8231 H        1 ZINC000008691822    0.1100
25     H25    -3.0598    3.6859    0.9567 H        1 ZINC000008691822    0.1200
26     H26    -2.3772    5.7577    2.1646 H        1 ZINC000008691822    0.1700
27     H27    -1.5317    9.5256   -1.7455 H        1 ZINC000008691822    0.1400
28     H28    -1.5012    8.7167   -4.0583 H        1 ZINC000008691822    0.1400
29     H29    -2.2042    4.7342   -2.7171 H        1 ZINC000008691822    0.1300
30     H30     2.2341    5.2506   -0.0033 H        1 ZINC000008691822    0.1400
31     H31     4.4241    4.1463   -0.0414 H        1 ZINC000008691822    0.1400
32     H32     4.5914    1.6950   -0.0581 H        1 ZINC000008691822    0.1300
33     H33     2.5638    0.3070   -0.0348 H        1 ZINC000008691822    0.1400
@<TRIPOS>BOND
1     1     2     2
2     2     22    1
3     2     3     am
4     3     4     1
5     3     23    1
6     4     5     1
7     4     16    2
8     5     6     1
9     5     24    1
10    5     25    1
11    6     15    1
12    6     7     2
13    7     8     1
14    7     26    1
15    8     9     1
16    9     15    ar
17    9     10    ar
18    10    11    ar
19    10    27    1
20    11    12    ar
21    11    28    1
22    12    13    1
23    12    14    ar
24    14    15    ar
25    14    29    1
26    16    17    1
27    17    22    ar
28    17    18    ar
29    18    19    ar
30    18    30    1
31    19    20    ar
32    19    31    1
33    20    21    ar
34    20    32    1
35    21    22    ar
36    21    33    1
@<TRIPOS>SUBSTRUCTURE
1   ZINC000008691822 1     RESIDUE    1   A     ZIN   1
