@<TRIPOS>MOLECULE
ZINC000034644465
69    73    1     0     0
SMALL
USER_CHARGES
@<TRIPOS>ATOM
1      C1     -0.0184    1.5028    0.0103 C.3      1 ZINC000034644465   -0.1300
2      C2      0.0021   -0.0041    0.0020 C.ar     1 ZINC000034644465   -0.0400
3      C3      0.0058   -0.6876   -1.1984 C.ar     1 ZINC000034644465   -0.1400
4      C4      0.0251   -2.0748   -1.2054 C.ar     1 ZINC000034644465    0.1400
5      O5      0.0292   -2.7495   -2.3851 O.3      1 ZINC000034644465   -0.4900
6      C6      0.0406   -2.7720   -0.0061 C.ar     1 ZINC000034644465   -0.1400
7      C7      0.0368   -2.0838    1.1917 C.ar     1 ZINC000034644465   -0.0800
8      C8      0.0541   -2.8405    2.4948 C.3      1 ZINC000034644465   -0.1400
9      C9      0.0229   -0.7012    1.1959 C.ar     1 ZINC000034644465   -0.1400
10     C10     0.0192    0.0471    2.5040 C.3      1 ZINC000034644465   -0.1000
11     C11     1.4604    0.3148    2.9424 C.3      1 ZINC000034644465    0.0100
12     H12     1.9919    0.8351    2.1456 H        1 ZINC000034644465    0.1700
13     N13     2.1309   -0.9610    3.2264 N.4      1 ZINC000034644465   -0.6200
14     H14     2.1330   -1.5323    2.3947 H        1 ZINC000034644465    0.4400
15     H15     3.0813   -0.7844    3.5155 H        1 ZINC000034644465    0.4400
16     H16     1.6390   -1.4426    3.9640 H        1 ZINC000034644465    0.4400
17     C17     1.4573    1.1680    4.1846 C.2      1 ZINC000034644465    0.5000
18     O18     1.6187    0.6562    5.2722 O.2      1 ZINC000034644465   -0.5000
19     N19     1.2752    2.4999    4.0869 N.am     1 ZINC000034644465   -0.6900
20     C20     1.2722    3.3293    5.2945 C.3      1 ZINC000034644465    0.1700
21     H21     1.9848    2.9235    6.0126 H        1 ZINC000034644465    0.1400
22     C22     1.6759    4.7441    4.9321 C.3      1 ZINC000034644465   -0.1000
23     C23     0.7310    5.4156    3.9563 C.ar     1 ZINC000034644465   -0.0900
24     C24     1.4979    6.0824    2.9696 C.ar     1 ZINC000034644465   -0.1300
25     C25     0.9272    6.8353    1.9793 C.ar     1 ZINC000034644465   -0.1100
26     C26    -0.4492    6.9662    1.9413 C.ar     1 ZINC000034644465   -0.1000
27     C27    -1.1951    6.3032    2.8830 C.ar     1 ZINC000034644465   -0.1200
28     C28    -0.5982    5.4954    3.8712 C.ar     1 ZINC000034644465   -0.0700
29     C29    -1.6329    4.7569    4.6632 C.3      1 ZINC000034644465    0.1300
30     N30    -1.2287    3.7692    5.6113 N.am     1 ZINC000034644465   -0.5400
31     C31    -2.3279    3.1808    6.3805 C.3      1 ZINC000034644465    0.1600
32     C32    -2.8555    1.9691    5.6563 C.2      1 ZINC000034644465    0.2700
33     N33    -3.7430    1.9969    4.7053 N.2      1 ZINC000034644465   -0.4700
34     C34    -3.9906    0.7331    4.2748 C.ar     1 ZINC000034644465    0.0500
35     C35    -4.8331    0.1955    3.2987 C.ar     1 ZINC000034644465   -0.0600
36     C36    -4.8615   -1.1550    3.0927 C.ar     1 ZINC000034644465   -0.1300
37     C37    -4.0604   -2.0025    3.8441 C.ar     1 ZINC000034644465   -0.0900
38     C38    -3.2214   -1.4942    4.8133 C.ar     1 ZINC000034644465   -0.1200
39     C39    -3.1789   -0.1250    5.0363 C.ar     1 ZINC000034644465    0.0500
40     N40    -2.4687    0.6873    5.8977 N.pl3    1 ZINC000034644465   -0.5900
41     C41    -0.0948    3.3215    5.8962 C.2      1 ZINC000034644465    0.4900
42     O42    -0.1082    2.7137    6.9456 O.2      1 ZINC000034644465   -0.5700
43     H43     1.0042    1.8801    0.0026 H        1 ZINC000034644465    0.0800
44     H44    -0.5455    1.8639   -0.8728 H        1 ZINC000034644465    0.0800
45     H45    -0.5286    1.8543    0.9071 H        1 ZINC000034644465    0.0700
46     H46    -0.0067   -0.1426   -2.1308 H        1 ZINC000034644465    0.1400
47     H47     0.9137   -2.9325   -2.7304 H        1 ZINC000034644465    0.4000
48     H48     0.0552   -3.8519   -0.0089 H        1 ZINC000034644465    0.1400
49     H49     1.0859   -3.0083    2.8038 H        1 ZINC000034644465    0.0600
50     H50    -0.4642   -2.2607    3.2586 H        1 ZINC000034644465    0.0800
51     H51    -0.4467   -3.7998    2.3646 H        1 ZINC000034644465    0.1000
52     H52    -0.5045    0.9948    2.3790 H        1 ZINC000034644465    0.1200
53     H53    -0.4864   -0.5502    3.2628 H        1 ZINC000034644465    0.1100
54     H54     1.1461    2.9092    3.2170 H        1 ZINC000034644465    0.4100
55     H55     1.7158    5.3395    5.8443 H        1 ZINC000034644465    0.1100
56     H56     2.6726    4.7200    4.4915 H        1 ZINC000034644465    0.1000
57     H57     2.5738    5.9936    3.0001 H        1 ZINC000034644465    0.1200
58     H58     1.5437    7.3212    1.2374 H        1 ZINC000034644465    0.1300
59     H59    -0.9258    7.5763    1.1882 H        1 ZINC000034644465    0.1300
60     H60    -2.2703    6.4033    2.8662 H        1 ZINC000034644465    0.1300
61     H61    -2.2237    5.4998    5.1991 H        1 ZINC000034644465    0.0900
62     H62    -2.3012    4.2711    3.9522 H        1 ZINC000034644465    0.0900
63     H63    -1.9654    2.8863    7.3653 H        1 ZINC000034644465    0.1400
64     H64    -3.1268    3.9140    6.4917 H        1 ZINC000034644465    0.1200
65     H65    -5.4611    0.8461    2.7082 H        1 ZINC000034644465    0.1300
66     H66    -5.5144   -1.5669    2.3374 H        1 ZINC000034644465    0.1300
67     H67    -4.0944   -3.0677    3.6692 H        1 ZINC000034644465    0.1300
68     H68    -2.6004   -2.1584    5.3960 H        1 ZINC000034644465    0.1200
69     H69    -1.8158    0.3977    6.5540 H        1 ZINC000034644465    0.4300
@<TRIPOS>BOND
1     1     2     1
2     1     43    1
3     1     44    1
4     1     45    1
5     2     9     ar
6     2     3     ar
7     3     4     ar
8     3     46    1
9     4     5     1
10    4     6     ar
11    5     47    1
12    6     7     ar
13    6     48    1
14    7     8     1
15    7     9     ar
16    8     49    1
17    8     50    1
18    8     51    1
19    9     10    1
20    10    11    1
21    10    52    1
22    10    53    1
23    11    12    1
24    11    13    1
25    11    17    1
26    13    14    1
27    13    15    1
28    13    16    1
29    17    18    2
30    17    19    am
31    19    20    1
32    19    54    1
33    20    21    1
34    20    41    1
35    20    22    1
36    22    23    1
37    22    55    1
38    22    56    1
39    23    28    ar
40    23    24    ar
41    24    25    ar
42    24    57    1
43    25    26    ar
44    25    58    1
45    26    27    ar
46    26    59    1
47    27    28    ar
48    27    60    1
49    28    29    1
50    29    30    1
51    29    61    1
52    29    62    1
53    30    31    1
54    30    41    am
55    31    32    1
56    31    63    1
57    31    64    1
58    32    40    1
59    32    33    2
60    33    34    1
61    34    39    ar
62    34    35    ar
63    35    36    ar
64    35    65    1
65    36    37    ar
66    36    66    1
67    37    38    ar
68    37    67    1
69    38    39    ar
70    38    68    1
71    39    40    1
72    40    69    1
73    41    42    2
@<TRIPOS>SUBSTRUCTURE
1   ZINC000034644465 1     RESIDUE    1   A     ZIN   1
