@<TRIPOS>MOLECULE
ZINC000104766359
50    54    1     0     0
SMALL
USER_CHARGES
@<TRIPOS>ATOM
1      O1      0.9677    1.7462    0.3932 O.2      1 ZINC000104766359   -0.1300
2      N2     -0.0241    1.3475    0.9771 N.pl3    1 ZINC000104766359    0.0200
3      O3      0.0565    0.3989    1.7367 O.2      1 ZINC000104766359   -0.1400
4      C4     -1.3347    2.0241    0.7668 C.ar     1 ZINC000104766359    0.0200
5      C5     -2.2199    2.1919    1.8438 C.ar     1 ZINC000104766359   -0.0800
6      C6     -1.8968    1.7312    3.1346 C.ar     1 ZINC000104766359   -0.0600
7      C7     -2.8050    1.9284    4.1354 C.ar     1 ZINC000104766359   -0.1500
8      C8     -4.0111    2.5702    3.8628 C.ar     1 ZINC000104766359    0.1600
9      N9     -4.3079    2.9976    2.6593 N.ar     1 ZINC000104766359   -0.4600
10     C10    -3.4639    2.8362    1.6373 C.ar     1 ZINC000104766359    0.1800
11     C11    -3.7897    3.2998    0.3431 C.ar     1 ZINC000104766359   -0.0800
12     S12    -5.3285    4.1065    0.0501 S.3      1 ZINC000104766359    0.1700
13     C13    -6.4095    2.7151    0.0560 C.2      1 ZINC000104766359    0.1600
14     N14    -6.0581    1.4535    0.1496 N.2      1 ZINC000104766359   -0.2800
15     N15    -7.1025    0.7051    0.1221 N.2      1 ZINC000104766359   -0.2500
16     C16    -8.1758    1.4364    0.0103 C.2      1 ZINC000104766359    0.1900
17     C17    -9.5954    0.9349   -0.0553 C.3      1 ZINC000104766359    0.1500
18     O18   -10.1325    0.8511    1.2663 O.3      1 ZINC000104766359   -0.3100
19     C19   -11.4134    0.4127    1.3850 C.ar     1 ZINC000104766359    0.1300
20     C20   -12.1364    0.0647    0.2533 C.ar     1 ZINC000104766359   -0.2100
21     C21   -13.4381   -0.3811    0.3767 C.ar     1 ZINC000104766359   -0.0800
22     C22   -14.0205   -0.4803    1.6268 C.ar     1 ZINC000104766359   -0.1600
23     C23   -13.3022   -0.1337    2.7562 C.ar     1 ZINC000104766359   -0.0800
24     C24   -11.9981    0.3068    2.6386 C.ar     1 ZINC000104766359   -0.1500
25     N25    -7.7747    2.7447   -0.0300 N.pl3    1 ZINC000104766359   -0.4100
26     C26    -8.5921    3.8784   -0.1447 C.ar     1 ZINC000104766359    0.0900
27     C27    -9.3387    4.0838   -1.2969 C.ar     1 ZINC000104766359   -0.1000
28     C28   -10.1428    5.2014   -1.4070 C.ar     1 ZINC000104766359   -0.1000
29     C29   -10.2043    6.1154   -0.3712 C.ar     1 ZINC000104766359   -0.1000
30     C30    -9.4614    5.9137    0.7775 C.ar     1 ZINC000104766359   -0.1000
31     C31    -8.6606    4.7946    0.8960 C.ar     1 ZINC000104766359   -0.0900
32     C32    -2.8936    3.1162   -0.6890 C.ar     1 ZINC000104766359   -0.0300
33     C33    -1.6731    2.4859   -0.4696 C.ar     1 ZINC000104766359   -0.0500
34     H34    -0.9570    1.2353    3.3278 H        1 ZINC000104766359    0.1600
35     H35    -2.5886    1.5870    5.1369 H        1 ZINC000104766359    0.1500
36     H36    -4.7203    2.7192    4.6635 H        1 ZINC000104766359    0.1700
37     H37   -10.1968    1.6234   -0.6489 H        1 ZINC000104766359    0.0800
38     H38    -9.6110   -0.0523   -0.5171 H        1 ZINC000104766359    0.1000
39     H39   -11.6821    0.1427   -0.7234 H        1 ZINC000104766359    0.1300
40     H40   -14.0014   -0.6521   -0.5040 H        1 ZINC000104766359    0.1300
41     H41   -15.0384   -0.8287    1.7211 H        1 ZINC000104766359    0.1300
42     H42   -13.7595   -0.2117    3.7315 H        1 ZINC000104766359    0.1300
43     H43   -11.4374    0.5775    3.5211 H        1 ZINC000104766359    0.1300
44     H44    -9.2905    3.3707   -2.1065 H        1 ZINC000104766359    0.1300
45     H45   -10.7239    5.3617   -2.3031 H        1 ZINC000104766359    0.1400
46     H46   -10.8335    6.9887   -0.4597 H        1 ZINC000104766359    0.1400
47     H47    -9.5108    6.6296    1.5846 H        1 ZINC000104766359    0.1400
48     H48    -8.0806    4.6375    1.7934 H        1 ZINC000104766359    0.1400
49     H49    -3.1407    3.4698   -1.6791 H        1 ZINC000104766359    0.1700
50     H50    -0.9871    2.3535   -1.2931 H        1 ZINC000104766359    0.1600
@<TRIPOS>BOND
1     1     2     2
2     2     3     2
3     2     4     1
4     4     33    ar
5     4     5     ar
6     5     10    ar
7     5     6     ar
8     6     7     ar
9     6     34    1
10    7     8     ar
11    7     35    1
12    8     9     ar
13    8     36    1
14    9     10    ar
15    10    11    ar
16    11    12    1
17    11    32    ar
18    12    13    1
19    13    25    1
20    13    14    2
21    14    15    1
22    15    16    2
23    16    17    1
24    16    25    1
25    17    18    1
26    17    37    1
27    17    38    1
28    18    19    1
29    19    24    ar
30    19    20    ar
31    20    21    ar
32    20    39    1
33    21    22    ar
34    21    40    1
35    22    23    ar
36    22    41    1
37    23    24    ar
38    23    42    1
39    24    43    1
40    25    26    1
41    26    31    ar
42    26    27    ar
43    27    28    ar
44    27    44    1
45    28    29    ar
46    28    45    1
47    29    30    ar
48    29    46    1
49    30    31    ar
50    30    47    1
51    31    48    1
52    32    33    ar
53    32    49    1
54    33    50    1
@<TRIPOS>SUBSTRUCTURE
1   ZINC000104766359 1     RESIDUE    1   A     ZIN   1
