@<TRIPOS>MOLECULE
ZINC000000674444
  49   50    0    0    0
SMALL
USER_CHARGES
NO_NAME
@<TRIPOS>ATOM
    1 C1        0.9681     1.5118    -0.7390 C.3    1 <0>      -0.1700
    2 C2        0.9936     0.0061    -0.7943 C.2    1 <0>       0.5100
    3 O3        2.0022    -0.5950    -0.4900 O.2    1 <0>      -0.5200
    4 N4       -0.1043    -0.6727    -1.1819 N.am   1 <0>      -0.6800
    5 C5       -0.0623    -2.0687    -1.2921 C.ar   1 <0>       0.1500
    6 C6       -0.7688    -2.7070    -2.3029 C.ar   1 <0>      -0.1400
    7 C7       -0.7277    -4.0826    -2.4113 C.ar   1 <0>      -0.0500
    8 C8        0.0206    -4.8281    -1.5096 C.ar   1 <0>       0.1000
    9 N9        0.0626    -6.2235    -1.6197 N.am   1 <0>      -0.6200
   10 C10       0.2159    -6.7998    -2.8284 C.2    1 <0>       0.5100
   11 S11       0.2629    -5.8307    -4.2389 S.2    1 <0>      -0.4900
   12 N12       0.3321    -8.1389    -2.9266 N.am   1 <0>      -0.6400
   13 C13       0.4853    -8.7152    -4.1353 C.2    1 <0>       0.5400
   14 O14       0.5187    -8.0273    -5.1365 O.2    1 <0>      -0.4000
   15 C15       0.6127   -10.1835    -4.2430 C.ar   1 <0>      -0.1400
   16 C16       0.5689   -10.9771    -3.0952 C.ar   1 <0>      -0.0900
   17 C17       0.6880   -12.3472    -3.2029 C.ar   1 <0>      -0.1200
   18 C18       0.8509   -12.9351    -4.4448 C.ar   1 <0>      -0.0400
   19 C19       0.9803   -14.4325    -4.5547 C.3    1 <0>      -0.0400
   20 C20      -0.2782   -15.0959    -3.9916 C.3    1 <0>      -0.1400
   21 C21       1.1489   -14.8234    -6.0243 C.3    1 <0>      -0.1500
   22 C22       2.2017   -14.8986    -3.7597 C.3    1 <0>      -0.1400
   23 C23       0.8951   -12.1544    -5.5864 C.ar   1 <0>      -0.1300
   24 C24       0.7715   -10.7836    -5.4935 C.ar   1 <0>      -0.0500
   25 C25       0.7275    -4.1896    -0.4989 C.ar   1 <0>      -0.1000
   26 C26       0.6906    -2.8136    -0.3939 C.ar   1 <0>      -0.1200
   27 H27       1.2810     1.9161    -1.7017 H      1 <0>       0.1000
   28 H28      -0.0435     1.8501    -0.5143 H      1 <0>       0.0800
   29 H29       1.6483     1.8584     0.0390 H      1 <0>       0.1000
   30 H30      -0.9237    -0.1947    -1.3846 H      1 <0>       0.4100
   31 H31      -1.3507    -2.1272    -3.0041 H      1 <0>       0.1300
   32 H32      -1.2778    -4.5790    -3.1970 H      1 <0>       0.1500
   33 H33      -0.0185    -6.7753    -0.8261 H      1 <0>       0.4100
   34 H34       0.3054    -8.6880    -2.1274 H      1 <0>       0.4100
   35 H35       0.4425   -10.5194    -2.1252 H      1 <0>       0.1200
   36 H36       0.6543   -12.9623    -2.3158 H      1 <0>       0.1300
   37 H37      -1.1483   -14.7638    -4.5580 H      1 <0>       0.0600
   38 H38      -0.1846   -16.1789    -4.0711 H      1 <0>       0.0600
   39 H39      -0.3983   -14.8174    -2.9447 H      1 <0>       0.0600
   40 H40       2.0454   -14.3508    -6.4254 H      1 <0>       0.0600
   41 H41       1.2424   -15.9065    -6.1037 H      1 <0>       0.0600
   42 H42       0.2787   -14.4914    -6.5906 H      1 <0>       0.0600
   43 H43       2.0816   -14.6201    -2.7127 H      1 <0>       0.0600
   44 H44       2.2953   -15.9816    -3.8392 H      1 <0>       0.0600
   45 H45       3.0982   -14.4260    -4.1608 H      1 <0>       0.0600
   46 H46       1.0228   -12.6196    -6.5526 H      1 <0>       0.1400
   47 H47       0.8058   -10.1755    -6.3853 H      1 <0>       0.1400
   48 H48       1.3092    -4.7693     0.2025 H      1 <0>       0.1300
   49 H49       1.2403    -2.3171     0.3920 H      1 <0>       0.1400
@<TRIPOS>BOND
   1    1    2 1
   2    1   27 1
   3    1   28 1
   4    1   29 1
   5    2    3 2
   6    2    4 am
   7    4    5 1
   8    4   30 1
   9    5   26 ar
  10    5    6 ar
  11    6    7 ar
  12    6   31 1
  13    7    8 ar
  14    7   32 1
  15    8    9 1
  16    8   25 ar
  17    9   10 am
  18    9   33 1
  19   10   11 2
  20   10   12 am
  21   12   13 am
  22   12   34 1
  23   13   14 2
  24   13   15 1
  25   15   24 ar
  26   15   16 ar
  27   16   17 ar
  28   16   35 1
  29   17   18 ar
  30   17   36 1
  31   18   19 1
  32   18   23 ar
  33   19   20 1
  34   19   21 1
  35   19   22 1
  36   20   37 1
  37   20   38 1
  38   20   39 1
  39   21   40 1
  40   21   41 1
  41   21   42 1
  42   22   43 1
  43   22   44 1
  44   22   45 1
  45   23   24 ar
  46   23   46 1
  47   24   47 1
  48   25   26 ar
  49   25   48 1
  50   26   49 1
