@<TRIPOS>MOLECULE
ZINC000013489153
  54   57    0    0    0
SMALL
USER_CHARGES
NO_NAME
@<TRIPOS>ATOM
    1 C1       -0.0173     1.4248     0.0099 C.3    1 <0>       0.0300
    2 O2        0.0021    -0.0041     0.0020 O.3    1 <0>      -0.3100
    3 C3        0.6055    -0.6068    -1.0553 C.ar   1 <0>       0.1500
    4 C4        1.1724     0.1642    -2.0615 C.ar   1 <0>      -0.2200
    5 C5        1.7856    -0.4445    -3.1358 C.ar   1 <0>      -0.0400
    6 C6        1.8366    -1.8361    -3.2111 C.ar   1 <0>      -0.1000
    7 C7        2.4954    -2.4938    -4.3645 C.ar   1 <0>       0.2300
    8 N8        3.0399    -1.7381    -5.3199 N.ar   1 <0>      -0.5500
    9 C9        3.6416    -2.2563    -6.3722 C.ar   1 <0>       0.4500
   10 N10       4.1898    -1.4269    -7.3335 N.pl3  1 <0>      -0.7200
   11 C11       4.1021     0.0276    -7.1823 C.3    1 <0>       0.1400
   12 C12       4.7818     0.7060    -8.3734 C.3    1 <0>      -0.1700
   13 C13       4.6902     2.2251    -8.2156 C.3    1 <0>       0.0000
   14 N14       5.3428     2.8765    -9.3591 N.4    1 <0>      -0.6400
   15 H15       5.2823     3.8783    -9.2551 H      1 <0>       0.4400
   16 H16       6.3125     2.6000    -9.3953 H      1 <0>       0.4400
   17 H17       4.8817     2.5986   -10.2126 H      1 <0>       0.4400
   18 C18       3.7266    -3.6598    -6.5178 C.ar   1 <0>      -0.1900
   19 C19       4.3572    -4.2506    -7.6195 C.ar   1 <0>      -0.0300
   20 C20       4.3946    -5.6387    -7.6810 C.ar   1 <0>      -0.1100
   21 C21       5.0503    -6.3174    -8.8254 C.ar   1 <0>      -0.0500
   22 C22       5.6370    -5.5656    -9.8418 C.ar   1 <0>      -0.1100
   23 C23       6.2456    -6.2025   -10.9042 C.ar   1 <0>      -0.1200
   24 C24       6.2739    -7.5843   -10.9614 C.ar   1 <0>      -0.1100
   25 C25       5.6932    -8.3356    -9.9554 C.ar   1 <0>      -0.1100
   26 C26       5.0869    -7.7094    -8.8854 C.ar   1 <0>      -0.1100
   27 C27       3.8091    -6.3936    -6.6542 C.ar   1 <0>       0.1700
   28 N28       3.2230    -5.8211    -5.6309 N.ar   1 <0>      -0.4700
   29 C29       3.1574    -4.4922    -5.5191 C.ar   1 <0>       0.2000
   30 C30       2.5352    -3.8749    -4.4202 C.ar   1 <0>      -0.1900
   31 C31       1.2667    -2.6076    -2.1988 C.ar   1 <0>      -0.0500
   32 C32       0.6592    -1.9927    -1.1247 C.ar   1 <0>      -0.1500
   33 H33       1.0053     1.8021     0.0021 H      1 <0>       0.0600
   34 H34      -0.5445     1.7859    -0.8732 H      1 <0>       0.0600
   35 H35      -0.5275     1.7763     0.9067 H      1 <0>       0.1000
   36 H36       1.1327     1.2419    -2.0025 H      1 <0>       0.1300
   37 H37       2.2257     0.1557    -3.9184 H      1 <0>       0.1300
   38 H38       4.6325    -1.8083    -8.1078 H      1 <0>       0.4100
   39 H39       3.0545     0.3263    -7.1433 H      1 <0>       0.0800
   40 H40       4.6001     0.3278    -6.2604 H      1 <0>       0.0800
   41 H41       5.8294     0.4074    -8.4125 H      1 <0>       0.0900
   42 H42       4.2838     0.4058    -9.2953 H      1 <0>       0.0900
   43 H43       3.6426     2.5238    -8.1765 H      1 <0>       0.1400
   44 H44       5.1882     2.5253    -7.2936 H      1 <0>       0.1400
   45 H45       4.8003    -3.6466    -8.3975 H      1 <0>       0.1300
   46 H46       5.6151    -4.4867    -9.7983 H      1 <0>       0.1200
   47 H47       6.7002    -5.6210   -11.6925 H      1 <0>       0.1300
   48 H48       6.7510    -8.0785   -11.7948 H      1 <0>       0.1300
   49 H49       5.7183    -9.4141   -10.0053 H      1 <0>       0.1300
   50 H50       4.6338    -8.2969    -8.1006 H      1 <0>       0.1300
   51 H51       3.8416    -7.4718    -6.7079 H      1 <0>       0.1700
   52 H52       2.0920    -4.4691    -3.6348 H      1 <0>       0.1500
   53 H53       1.3045    -3.6855    -2.2542 H      1 <0>       0.1400
   54 H54       0.2177    -2.5896    -0.3403 H      1 <0>       0.1400
@<TRIPOS>BOND
   1    1    2 1
   2    1   33 1
   3    1   34 1
   4    1   35 1
   5    2    3 1
   6    3   32 ar
   7    3    4 ar
   8    4    5 ar
   9    4   36 1
  10    5    6 ar
  11    5   37 1
  12    6    7 1
  13    6   31 ar
  14    7   30 ar
  15    7    8 ar
  16    8    9 ar
  17    9   10 1
  18    9   18 ar
  19   10   11 1
  20   10   38 1
  21   11   12 1
  22   11   39 1
  23   11   40 1
  24   12   13 1
  25   12   41 1
  26   12   42 1
  27   13   14 1
  28   13   43 1
  29   13   44 1
  30   14   15 1
  31   14   16 1
  32   14   17 1
  33   18   29 ar
  34   18   19 ar
  35   19   20 ar
  36   19   45 1
  37   20   21 1
  38   20   27 ar
  39   21   26 ar
  40   21   22 ar
  41   22   23 ar
  42   22   46 1
  43   23   24 ar
  44   23   47 1
  45   24   25 ar
  46   24   48 1
  47   25   26 ar
  48   25   49 1
  49   26   50 1
  50   27   28 ar
  51   27   51 1
  52   28   29 ar
  53   29   30 ar
  54   30   52 1
  55   31   32 ar
  56   31   53 1
  57   32   54 1
