@<TRIPOS>MOLECULE
ZINC000001401259
40    43    1     0     0
SMALL
USER_CHARGES
@<TRIPOS>ATOM
1      O1      0.0021   -0.0041    0.0020 O.2      1 ZINC000001401259   -0.4200
2      C2     -0.0144    1.2090    0.0087 C.2      1 ZINC000001401259    0.4100
3      C3     -1.2488    2.0773    0.0317 C.3      1 ZINC000001401259   -0.1700
4      C4     -0.7292    3.5217    0.0316 C.3      1 ZINC000001401259   -0.0100
5      H5     -1.0588    4.0385    0.9330 H        1 ZINC000001401259    0.1100
6      C6     -1.2230    4.2497   -1.1920 C.ar     1 ZINC000001401259   -0.0800
7      C7     -0.9235    3.7660   -2.4519 C.ar     1 ZINC000001401259   -0.1100
8      C8     -1.3764    4.4337   -3.5743 C.ar     1 ZINC000001401259   -0.1200
9      C9     -2.1293    5.5849   -3.4369 C.ar     1 ZINC000001401259   -0.1200
10     C10    -2.4296    6.0681   -2.1771 C.ar     1 ZINC000001401259   -0.1200
11     C11    -1.9803    5.3979   -1.0546 C.ar     1 ZINC000001401259   -0.1100
12     C12     0.7778    3.4282    0.0086 C.ar     1 ZINC000001401259   -0.0300
13     C13     1.7370    4.4193   -0.0005 C.ar     1 ZINC000001401259   -0.1200
14     C14     3.0844    4.0954   -0.0223 C.ar     1 ZINC000001401259   -0.0700
15     C15     3.4836    2.7752   -0.0353 C.ar     1 ZINC000001401259   -0.1700
16     C16     2.5355    1.7616   -0.0265 C.ar     1 ZINC000001401259    0.1500
17     N17     2.9369    0.4340   -0.0395 N.3      1 ZINC000001401259   -0.4800
18     C18     3.7886    0.1470   -1.2220 C.3      1 ZINC000001401259    0.0400
19     C19     4.5448   -1.1411   -0.8100 C.3      1 ZINC000001401259   -0.1200
20     C20     4.8165   -0.9159    0.6951 C.3      1 ZINC000001401259   -0.1300
21     C21     3.7689    0.1203    1.1424 C.3      1 ZINC000001401259    0.0400
22     C22     1.1619    2.0852    0.0022 C.ar     1 ZINC000001401259   -0.1700
23     H23    -1.8559    1.8943   -0.8549 H        1 ZINC000001401259    0.1100
24     H24    -1.8291    1.8848    0.9341 H        1 ZINC000001401259    0.1100
25     H25    -0.3352    2.8666   -2.5593 H        1 ZINC000001401259    0.1200
26     H26    -1.1417    4.0562   -4.5586 H        1 ZINC000001401259    0.1200
27     H27    -2.4826    6.1070   -4.3139 H        1 ZINC000001401259    0.1200
28     H28    -3.0176    6.9676   -2.0697 H        1 ZINC000001401259    0.1200
29     H29    -2.2150    5.7754   -0.0703 H        1 ZINC000001401259    0.1200
30     H30     1.4355    5.4563    0.0091 H        1 ZINC000001401259    0.1300
31     H31     3.8256    4.8809   -0.0296 H        1 ZINC000001401259    0.1300
32     H32     4.5353    2.5300   -0.0527 H        1 ZINC000001401259    0.1300
33     H33     3.1742   -0.0331   -2.1041 H        1 ZINC000001401259    0.0800
34     H34     4.4883    0.9637   -1.3995 H        1 ZINC000001401259    0.0500
35     H35     3.9192   -2.0207   -0.9617 H        1 ZINC000001401259    0.0800
36     H36     5.4805   -1.2321   -1.3615 H        1 ZINC000001401259    0.0800
37     H37     4.6868   -1.8473    1.2464 H        1 ZINC000001401259    0.0800
38     H38     5.8230   -0.5247    0.8435 H        1 ZINC000001401259    0.0700
39     H39     4.2670    1.0230    1.4961 H        1 ZINC000001401259    0.0500
40     H40     3.1470   -0.2982    1.9338 H        1 ZINC000001401259    0.0800
@<TRIPOS>BOND
1     1     2     2
2     2     22    1
3     2     3     1
4     3     4     1
5     3     23    1
6     3     24    1
7     4     5     1
8     4     6     1
9     4     12    1
10    6     11    ar
11    6     7     ar
12    7     8     ar
13    7     25    1
14    8     9     ar
15    8     26    1
16    9     10    ar
17    9     27    1
18    10    11    ar
19    10    28    1
20    11    29    1
21    12    22    ar
22    12    13    ar
23    13    14    ar
24    13    30    1
25    14    15    ar
26    14    31    1
27    15    16    ar
28    15    32    1
29    16    17    1
30    16    22    ar
31    17    21    1
32    17    18    1
33    18    19    1
34    18    33    1
35    18    34    1
36    19    20    1
37    19    35    1
38    19    36    1
39    20    21    1
40    20    37    1
41    20    38    1
42    21    39    1
43    21    40    1
@<TRIPOS>SUBSTRUCTURE
1   ZINC000001401259 1     RESIDUE    1   A     ZIN   1
