@<TRIPOS>MOLECULE
ZINC000095582228
70    76    1     0     0
SMALL
USER_CHARGES
@<TRIPOS>ATOM
1      C1      0.9094   -1.5143    0.2772 C.3      1 ZINC000095582228   -0.1400
2      C2      0.0796   -0.2569    0.0105 C.3      1 ZINC000095582228   -0.0500
3      C3     -1.3754   -0.6309   -0.1076 C.2      1 ZINC000095582228    0.2900
4      N4     -2.1836   -0.8233    0.8999 N.2      1 ZINC000095582228   -0.4800
5      C5     -3.4050   -1.1415    0.4444 C.2      1 ZINC000095582228    0.1300
6      C6     -3.3367   -1.1433   -0.9532 C.2      1 ZINC000095582228   -0.1100
7      C7     -4.4909   -1.4482   -1.6939 C.2      1 ZINC000095582228    0.5800
8      O8     -4.4466   -1.4541   -2.9133 O.2      1 ZINC000095582228   -0.5500
9      N9     -5.6455   -1.7344   -1.0635 N.am     1 ZINC000095582228   -0.5000
10     C10    -6.8322   -2.0484   -1.8632 C.3      1 ZINC000095582228    0.1400
11     C11    -6.8876   -3.5326   -2.1184 C.ar     1 ZINC000095582228   -0.0700
12     C12    -6.4581   -4.0428   -3.3257 C.ar     1 ZINC000095582228   -0.0900
13     C13    -6.5083   -5.4055   -3.5618 C.ar     1 ZINC000095582228   -0.0900
14     C14    -6.9893   -6.2650   -2.5904 C.ar     1 ZINC000095582228   -0.1100
15     C15    -7.4222   -5.7681   -1.3782 C.ar     1 ZINC000095582228   -0.0700
16     C16    -7.3685   -4.3951   -1.1310 C.ar     1 ZINC000095582228   -0.0200
17     C17    -7.8161   -3.8724    0.1248 C.1      1 ZINC000095582228    0.2500
18     N18    -8.1711   -3.4577    1.1210 N.1      1 ZINC000095582228   -0.4100
19     C19    -5.7444   -1.7414    0.2968 C.2      1 ZINC000095582228    0.0800
20     C20    -4.6836   -1.4585    1.0770 C.2      1 ZINC000095582228   -0.1100
21     C21    -4.8123   -1.4720    2.5785 C.3      1 ZINC000095582228   -0.0900
22     N22    -2.0370   -0.8106   -1.2704 N.pl3    1 ZINC000095582228   -0.4100
23     C23    -1.4764   -0.6835   -2.6179 C.3      1 ZINC000095582228    0.1700
24     H24    -2.2329   -0.9218   -3.3656 H        1 ZINC000095582228    0.1300
25     C25    -0.9350    0.7445   -2.8402 C.3      1 ZINC000095582228   -0.1300
26     C26     0.2927    0.4972   -3.7421 C.3      1 ZINC000095582228   -0.0800
27     C27     0.7422   -0.9125   -3.4217 C.ar     1 ZINC000095582228   -0.0900
28     C28     1.9435   -1.5472   -3.6768 C.ar     1 ZINC000095582228   -0.0800
29     C29     2.1323   -2.8702   -3.2835 C.ar     1 ZINC000095582228   -0.0500
30     C30     3.4204   -3.5517   -3.5555 C.ar     1 ZINC000095582228    0.0000
31     C31     3.9765   -3.5138   -4.8310 C.ar     1 ZINC000095582228   -0.1100
32     C32     5.1765   -4.1495   -5.0799 C.ar     1 ZINC000095582228   -0.1000
33     C33     5.8327   -4.8270   -4.0669 C.ar     1 ZINC000095582228   -0.1200
34     C34     5.2947   -4.8743   -2.7962 C.ar     1 ZINC000095582228   -0.0800
35     C35     4.0889   -4.2340   -2.5269 C.ar     1 ZINC000095582228   -0.0100
36     C36     3.5075   -4.2818   -1.1632 C.2      1 ZINC000095582228    0.2100
37     N37     4.0204   -4.8854   -0.1089 N.2      1 ZINC000095582228   -0.2900
38     N38     3.2186   -4.6967    0.8822 N.pl3    1 ZINC000095582228   -0.2300
39     N39     2.2144   -3.9932    0.4900 N.2      1 ZINC000095582228   -0.0500
40     N40     2.3610   -3.7147   -0.7609 N.2      1 ZINC000095582228   -0.2500
41     C41     1.1041   -3.5497   -2.6324 C.ar     1 ZINC000095582228   -0.0300
42     C42    -0.0908   -2.9083   -2.3828 C.ar     1 ZINC000095582228   -0.0900
43     C43    -0.2768   -1.5938   -2.7758 C.ar     1 ZINC000095582228   -0.1000
44     H44     1.9698   -1.2647    0.2395 H        1 ZINC000095582228    0.0500
45     H45     0.6640   -1.9092    1.2631 H        1 ZINC000095582228    0.0600
46     H46     0.6856   -2.2649   -0.4809 H        1 ZINC000095582228    0.0900
47     H47     0.2087    0.4451    0.8343 H        1 ZINC000095582228    0.0900
48     H48     0.4119    0.2075   -0.9180 H        1 ZINC000095582228    0.0900
49     H49    -7.7268   -1.7390   -1.3228 H        1 ZINC000095582228    0.1000
50     H50    -6.7804   -1.5179   -2.8140 H        1 ZINC000095582228    0.1200
51     H51    -6.0820   -3.3774   -4.0887 H        1 ZINC000095582228    0.1400
52     H52    -6.1707   -5.7997   -4.5089 H        1 ZINC000095582228    0.1300
53     H53    -7.0264   -7.3273   -2.7814 H        1 ZINC000095582228    0.1400
54     H54    -7.7978   -6.4402   -0.6208 H        1 ZINC000095582228    0.1400
55     H55    -6.6923   -1.9774    0.7574 H        1 ZINC000095582228    0.1600
56     H56    -5.8347   -1.7312    2.8532 H        1 ZINC000095582228    0.0600
57     H57    -4.1260   -2.2092    2.9953 H        1 ZINC000095582228    0.0700
58     H58    -4.5691   -0.4854    2.9729 H        1 ZINC000095582228    0.0700
59     H59    -1.6727    1.3633   -3.3512 H        1 ZINC000095582228    0.0900
60     H60    -0.6363    1.1971   -1.8947 H        1 ZINC000095582228    0.0900
61     H61     0.0123    0.5753   -4.7925 H        1 ZINC000095582228    0.0900
62     H62     1.0841    1.2091   -3.5072 H        1 ZINC000095582228    0.0800
63     H63     2.7371   -1.0164   -4.1816 H        1 ZINC000095582228    0.1200
64     H64     3.4691   -2.9874   -5.6260 H        1 ZINC000095582228    0.1300
65     H65     5.6054   -4.1182   -6.0706 H        1 ZINC000095582228    0.1300
66     H66     6.7706   -5.3218   -4.2717 H        1 ZINC000095582228    0.1300
67     H67     5.8118   -5.4047   -2.0102 H        1 ZINC000095582228    0.1400
68     H68     3.3510   -5.0323    1.7826 H        1 ZINC000095582228    0.4800
69     H69     1.2428   -4.5756   -2.3247 H        1 ZINC000095582228    0.1200
70     H70    -0.8875   -3.4348   -1.8783 H        1 ZINC000095582228    0.1100
@<TRIPOS>BOND
1     1     2     1
2     1     44    1
3     1     45    1
4     1     46    1
5     2     3     1
6     2     47    1
7     2     48    1
8     3     22    1
9     3     4     2
10    4     5     1
11    5     20    1
12    5     6     2
13    6     7     1
14    6     22    1
15    7     8     2
16    7     9     am
17    9     10    1
18    9     19    1
19    10    11    1
20    10    49    1
21    10    50    1
22    11    16    ar
23    11    12    ar
24    12    13    ar
25    12    51    1
26    13    14    ar
27    13    52    1
28    14    15    ar
29    14    53    1
30    15    16    ar
31    15    54    1
32    16    17    1
33    17    18    3
34    19    20    2
35    19    55    1
36    20    21    1
37    21    56    1
38    21    57    1
39    21    58    1
40    22    23    1
41    23    24    1
42    23    43    1
43    23    25    1
44    25    26    1
45    25    59    1
46    25    60    1
47    26    27    1
48    26    61    1
49    26    62    1
50    27    43    ar
51    27    28    ar
52    28    29    ar
53    28    63    1
54    29    30    1
55    29    41    ar
56    30    35    ar
57    30    31    ar
58    31    32    ar
59    31    64    1
60    32    33    ar
61    32    65    1
62    33    34    ar
63    33    66    1
64    34    35    ar
65    34    67    1
66    35    36    1
67    36    40    1
68    36    37    2
69    37    38    1
70    38    39    1
71    38    68    1
72    39    40    2
73    41    42    ar
74    41    69    1
75    42    43    ar
76    42    70    1
@<TRIPOS>SUBSTRUCTURE
1   ZINC000095582228 1     RESIDUE    1   A     ZIN   1
