@<TRIPOS>MOLECULE
ZINC000029054251
47    48    1     0     0
SMALL
USER_CHARGES
@<TRIPOS>ATOM
1      N1      0.1527    1.1240    1.2300 N.pl3    1 ZINC000029054251   -0.8800
2      C2      0.0851   -0.1463    0.6478 C.ar     1 ZINC000029054251    0.1900
3      C3     -1.1059   -0.8565    0.6647 C.ar     1 ZINC000029054251   -0.1800
4      C4     -1.1705   -2.1116    0.0883 C.ar     1 ZINC000029054251   -0.0800
5      C5     -0.0504   -2.6622   -0.5060 C.ar     1 ZINC000029054251   -0.1600
6      C6      1.1414   -1.9613   -0.5270 C.ar     1 ZINC000029054251   -0.0700
7      C7      1.2139   -0.6999    0.0434 C.ar     1 ZINC000029054251    0.0600
8      N8      2.4207    0.0125    0.0227 N.am     1 ZINC000029054251   -0.6700
9      C9      3.5927   -0.6441    0.1310 C.2      1 ZINC000029054251    0.5100
10     O10     3.6081   -1.8566    0.1615 O.2      1 ZINC000029054251   -0.5200
11     C11     4.8841    0.1282    0.2144 C.3      1 ZINC000029054251   -0.1400
12     C12     6.0560   -0.8486    0.3304 C.3      1 ZINC000029054251   -0.1100
13     C13     7.3671   -0.0646    0.4150 C.3      1 ZINC000029054251   -0.1200
14     C14     8.5389   -1.0414    0.5310 C.3      1 ZINC000029054251   -0.1100
15     C15     9.8500   -0.2573    0.6156 C.3      1 ZINC000029054251   -0.1400
16     C16    11.0042   -1.2195    0.7299 C.2      1 ZINC000029054251    0.5100
17     O17    10.7984   -2.4147    0.7425 O.2      1 ZINC000029054251   -0.5100
18     N18    12.2652   -0.7518    0.8182 N.am     1 ZINC000029054251   -0.6800
19     C19    13.3444   -1.6423    0.8014 C.ar     1 ZINC000029054251    0.1500
20     C20    14.5425   -1.2951    1.4119 C.ar     1 ZINC000029054251   -0.1500
21     C21    15.6059   -2.1763    1.3936 C.ar     1 ZINC000029054251   -0.1000
22     C22    15.4786   -3.4028    0.7679 C.ar     1 ZINC000029054251   -0.1400
23     C23    14.2871   -3.7513    0.1587 C.ar     1 ZINC000029054251   -0.1000
24     C24    13.2179   -2.8774    0.1793 C.ar     1 ZINC000029054251   -0.1300
25     H25     0.9855    1.6212    1.2137 H        1 ZINC000029054251    0.3900
26     H26    -0.6341    1.5092    1.6463 H        1 ZINC000029054251    0.4000
27     H27    -1.9828   -0.4294    1.1285 H        1 ZINC000029054251    0.1200
28     H28    -2.0987   -2.6635    0.1027 H        1 ZINC000029054251    0.1200
29     H29    -0.1062   -3.6429   -0.9548 H        1 ZINC000029054251    0.1200
30     H30     2.0147   -2.3948   -0.9916 H        1 ZINC000029054251    0.1400
31     H31     2.4124    0.9780   -0.0696 H        1 ZINC000029054251    0.4000
32     H32     5.0037    0.7341   -0.6838 H        1 ZINC000029054251    0.1000
33     H33     4.8637    0.7769    1.0901 H        1 ZINC000029054251    0.1000
34     H34     5.9364   -1.4545    1.2286 H        1 ZINC000029054251    0.0700
35     H35     6.0764   -1.4973   -0.5454 H        1 ZINC000029054251    0.0700
36     H36     7.4867    0.5413   -0.4832 H        1 ZINC000029054251    0.0600
37     H37     7.3467    0.5841    1.2908 H        1 ZINC000029054251    0.0600
38     H38     8.4193   -1.6473    1.4292 H        1 ZINC000029054251    0.0700
39     H39     8.5593   -1.6900   -0.3447 H        1 ZINC000029054251    0.0700
40     H40     9.9696    0.3485   -0.2825 H        1 ZINC000029054251    0.1000
41     H41     9.8296    0.3913    1.4914 H        1 ZINC000029054251    0.1000
42     H42    12.4245    0.2020    0.8933 H        1 ZINC000029054251    0.4100
43     H43    14.6427   -0.3370    1.9001 H        1 ZINC000029054251    0.1200
44     H44    16.5379   -1.9069    1.8681 H        1 ZINC000029054251    0.1300
45     H45    16.3118   -4.0900    0.7546 H        1 ZINC000029054251    0.1200
46     H46    14.1911   -4.7098   -0.3297 H        1 ZINC000029054251    0.1300
47     H47    12.2875   -3.1501   -0.2967 H        1 ZINC000029054251    0.1400
@<TRIPOS>BOND
1     1     2     1
2     1     25    1
3     1     26    1
4     2     7     ar
5     2     3     ar
6     3     4     ar
7     3     27    1
8     4     5     ar
9     4     28    1
10    5     6     ar
11    5     29    1
12    6     7     ar
13    6     30    1
14    7     8     1
15    8     9     am
16    8     31    1
17    9     10    2
18    9     11    1
19    11    12    1
20    11    32    1
21    11    33    1
22    12    13    1
23    12    34    1
24    12    35    1
25    13    14    1
26    13    36    1
27    13    37    1
28    14    15    1
29    14    38    1
30    14    39    1
31    15    16    1
32    15    40    1
33    15    41    1
34    16    17    2
35    16    18    am
36    18    19    1
37    18    42    1
38    19    24    ar
39    19    20    ar
40    20    21    ar
41    20    43    1
42    21    22    ar
43    21    44    1
44    22    23    ar
45    22    45    1
46    23    24    ar
47    23    46    1
48    24    47    1
@<TRIPOS>SUBSTRUCTURE
1   ZINC000029054251 1     RESIDUE    1   A     ZIN   1
