@<TRIPOS>MOLECULE
ZINC000000001677
21    22    1     0     0
SMALL
USER_CHARGES
@<TRIPOS>ATOM
1      C1     -0.0184    1.5028    0.0103 C.3      1 ZINC000000001677   -0.1200
2      C2      0.0021   -0.0041    0.0020 C.2      1 ZINC000000001677   -0.1100
3      C3      0.0056   -0.6639   -1.1662 C.2      1 ZINC000000001677   -0.1500
4      C4      0.0258   -2.1408   -1.1920 C.2      1 ZINC000000001677    0.4200
5      O5      0.2756   -2.7341   -2.2223 O.2      1 ZINC000000001677   -0.4200
6      C6     -0.2613   -2.8890    0.0519 C.ar     1 ZINC000000001677   -0.1300
7      C7     -0.5255   -4.2516    0.0276 C.ar     1 ZINC000000001677   -0.0700
8      C8     -0.7905   -4.9213    1.2133 C.ar     1 ZINC000000001677   -0.1000
9      C9     -0.7932   -4.2422    2.4160 C.ar     1 ZINC000000001677   -0.1000
10     C10    -0.5313   -2.8805    2.4560 C.ar     1 ZINC000000001677   -0.0700
11     C11    -0.2645   -2.1969    1.2776 C.ar     1 ZINC000000001677   -0.1300
12     C12     0.0243   -0.7444    1.2802 C.2      1 ZINC000000001677    0.4200
13     O13     0.2720   -0.1690    2.3211 O.2      1 ZINC000000001677   -0.4200
14     H14     1.0042    1.8801    0.0026 H        1 ZINC000000001677    0.0900
15     H15    -0.5455    1.8639   -0.8728 H        1 ZINC000000001677    0.0800
16     H16    -0.5286    1.8543    0.9071 H        1 ZINC000000001677    0.0800
17     H17    -0.0068   -0.1114   -2.0942 H        1 ZINC000000001677    0.1600
18     H18    -0.5244   -4.7879   -0.9098 H        1 ZINC000000001677    0.1400
19     H19    -0.9965   -5.9813    1.1957 H        1 ZINC000000001677    0.1400
20     H20    -1.0012   -4.7752    3.3320 H        1 ZINC000000001677    0.1400
21     H21    -0.5353   -2.3547    3.3993 H        1 ZINC000000001677    0.1400
@<TRIPOS>BOND
1     1     2     1
2     1     14    1
3     1     15    1
4     1     16    1
5     2     12    1
6     2     3     2
7     3     4     1
8     3     17    1
9     4     5     2
10    4     6     1
11    6     11    ar
12    6     7     ar
13    7     8     ar
14    7     18    1
15    8     9     ar
16    8     19    1
17    9     10    ar
18    9     20    1
19    10    11    ar
20    10    21    1
21    11    12    1
22    12    13    2
@<TRIPOS>SUBSTRUCTURE
1   ZINC000000001677 1     RESIDUE    1   A     ZIN   1
