@<TRIPOS>MOLECULE
ZINC000006484604
  34   36    0    0    0
SMALL
USER_CHARGES
NO_NAME
@<TRIPOS>ATOM
    1 C1       -1.3395    -0.4413    -0.2933 C.3    1 <0>       0.0200
    2 O2       -0.0056    -0.0193    -0.0023 O.3    1 <0>      -0.3100
    3 C3        0.6206    -0.6278     1.0388 C.ar   1 <0>       0.1100
    4 C4       -0.0360    -1.6145     1.7602 C.ar   1 <0>      -0.2000
    5 C5        0.5949    -2.2355     2.8173 C.ar   1 <0>      -0.0500
    6 C6        1.8985    -1.8713     3.1642 C.ar   1 <0>      -0.0500
    7 C7        2.5752    -2.5344     4.2941 C.2    1 <0>       0.1200
    8 C8        3.2151    -1.7647     5.2186 C.2    1 <0>      -0.0600
    9 O9        3.2247    -0.4095     5.0948 O.3    1 <0>      -0.4600
   10 C10       3.8711    -2.3877     6.3118 C.2    1 <0>       0.4000
   11 O11       4.4542    -1.7307     7.1595 O.2    1 <0>      -0.5000
   12 C12       3.8207    -3.8567     6.3840 C.ar   1 <0>      -0.3700
   13 C13       4.4403    -4.5545     7.4288 C.ar   1 <0>       0.2200
   14 O14       5.1043    -3.8806     8.4018 O.3    1 <0>      -0.4900
   15 C15       4.3699    -5.9349     7.4614 C.ar   1 <0>      -0.2900
   16 C16       3.6887    -6.6236     6.4637 C.ar   1 <0>       0.3300
   17 O17       3.6259    -7.9791     6.5056 O.3    1 <0>      -0.6900
   18 C18       3.0728    -5.9397     5.4271 C.ar   1 <0>      -0.2900
   19 C19       3.1325    -4.5556     5.3765 C.ar   1 <0>       0.2000
   20 O20       2.5334    -3.8752     4.3768 O.3    1 <0>      -0.2100
   21 C21       2.5598    -0.8769     2.4371 C.ar   1 <0>      -0.0600
   22 C22       1.9232    -0.2630     1.3760 C.ar   1 <0>       0.0700
   23 O23       2.5635     0.7046     0.6666 O.3    1 <0>      -0.4800
   24 H24      -1.9744    -0.2634     0.5747 H      1 <0>       0.0600
   25 H25      -1.7214     0.1225    -1.1444 H      1 <0>       0.1000
   26 H26      -1.3403    -1.5048    -0.5321 H      1 <0>       0.0600
   27 H27      -1.0437    -1.8967     1.4932 H      1 <0>       0.1400
   28 H28       0.0813    -3.0030     3.3773 H      1 <0>       0.1400
   29 H29       3.7042     0.0465     5.7999 H      1 <0>       0.4000
   30 H30       4.5527    -3.6365     9.1577 H      1 <0>       0.3800
   31 H31       4.8455    -6.4797     8.2636 H      1 <0>       0.1200
   32 H32       2.5467    -6.4856     4.6579 H      1 <0>       0.1200
   33 H33       3.5674    -0.5923     2.7019 H      1 <0>       0.1400
   34 H34       3.0697     0.3704    -0.0865 H      1 <0>       0.3800
@<TRIPOS>BOND
   1    1    2 1
   2    1   24 1
   3    1   25 1
   4    1   26 1
   5    2    3 1
   6    3   22 ar
   7    3    4 ar
   8    4    5 ar
   9    4   27 1
  10    5    6 ar
  11    5   28 1
  12    6    7 1
  13    6   21 ar
  14    7   20 1
  15    7    8 2
  16    8    9 1
  17    8   10 1
  18    9   29 1
  19   10   11 2
  20   10   12 1
  21   12   19 ar
  22   12   13 ar
  23   13   14 1
  24   13   15 ar
  25   14   30 1
  26   15   16 ar
  27   15   31 1
  28   16   17 1
  29   16   18 ar
  30   18   19 ar
  31   18   32 1
  32   19   20 1
  33   21   22 ar
  34   21   33 1
  35   22   23 1
  36   23   34 1
