@<TRIPOS>MOLECULE
ZINC000000120273
29    31    1     0     0
SMALL
USER_CHARGES
@<TRIPOS>ATOM
1      O1     -0.9165    1.1862   -0.0639 O.2      1 ZINC000000120273   -0.5400
2      C2     -0.5763    2.3587   -0.0200 C.2      1 ZINC000000120273    0.4200
3      C3     -1.5308    3.3844    0.0381 C.2      1 ZINC000000120273   -0.4900
4      C4     -1.1356    4.7037    0.0823 C.2      1 ZINC000000120273    0.3200
5      O5     -2.0856    5.6677    0.1467 O.3      1 ZINC000000120273   -0.6800
6      C6      0.2117    5.0848    0.0634 C.2      1 ZINC000000120273   -0.1500
7      C7      1.2070    4.1569    0.0037 C.2      1 ZINC000000120273    0.1000
8      O8      2.5039    4.5426   -0.0402 O.3      1 ZINC000000120273   -0.2900
9      C9      3.4781    3.6588    0.5261 C.3      1 ZINC000000120273    0.1100
10     C10     3.3163    3.6169    2.0238 C.ar     1 ZINC000000120273   -0.1300
11     C11     4.2956    3.0376    2.8088 C.ar     1 ZINC000000120273   -0.1100
12     C12     4.1472    2.9991    4.1826 C.ar     1 ZINC000000120273   -0.1200
13     C13     3.0198    3.5404    4.7715 C.ar     1 ZINC000000120273   -0.1100
14     C14     2.0409    4.1205    3.9865 C.ar     1 ZINC000000120273   -0.1100
15     C15     2.1913    4.1628    2.6130 C.ar     1 ZINC000000120273   -0.1000
16     C16     3.2563    2.2743   -0.0510 C.2      1 ZINC000000120273    0.3500
17     O17     4.1704    1.6110   -0.4799 O.2      1 ZINC000000120273   -0.4200
18     C18     1.8490    1.7724   -0.0613 C.2      1 ZINC000000120273    0.0800
19     O19     1.5656    0.4564   -0.1025 O.3      1 ZINC000000120273   -0.4100
20     C20     0.8495    2.7344   -0.0205 C.2      1 ZINC000000120273   -0.1600
21     H21    -2.5825    3.1387    0.0480 H        1 ZINC000000120273    0.1100
22     H22     0.4663    6.1338    0.0964 H        1 ZINC000000120273    0.1300
23     H23     4.4800    4.0064    0.2743 H        1 ZINC000000120273    0.1500
24     H24     5.1765    2.6147    2.3487 H        1 ZINC000000120273    0.1200
25     H25     4.9120    2.5459    4.7959 H        1 ZINC000000120273    0.1200
26     H26     2.9035    3.5097    5.8448 H        1 ZINC000000120273    0.1200
27     H27     1.1599    4.5431    4.4466 H        1 ZINC000000120273    0.1300
28     H28     1.4265    4.6161    1.9998 H        1 ZINC000000120273    0.1400
29     H29     2.3155   -0.1537   -0.1253 H        1 ZINC000000120273    0.4000
@<TRIPOS>BOND
1     1     2     2
2     2     20    1
3     2     3     1
4     3     4     2
5     3     21    1
6     4     5     1
7     4     6     1
8     6     7     2
9     6     22    1
10    7     20    1
11    7     8     1
12    8     9     1
13    9     10    1
14    9     16    1
15    9     23    1
16    10    15    ar
17    10    11    ar
18    11    12    ar
19    11    24    1
20    12    13    ar
21    12    25    1
22    13    14    ar
23    13    26    1
24    14    15    ar
25    14    27    1
26    15    28    1
27    16    17    2
28    16    18    1
29    18    19    1
30    18    20    2
31    19    29    1
@<TRIPOS>SUBSTRUCTURE
1   ZINC000000120273 1     RESIDUE    1   A     ZIN   1
