@<TRIPOS>MOLECULE
ZINC000000332913
16    16    1     0     0
SMALL
USER_CHARGES
@<TRIPOS>ATOM
1      N1     -0.0178    1.3445   -0.0327 N.am     1 ZINC000000332913   -0.8400
2      C2      0.0013   -0.0030   -0.0125 C.2      1 ZINC000000332913    0.5900
3      O3      1.0629   -0.5960   -0.0072 O.2      1 ZINC000000332913   -0.5500
4      C4     -1.2650   -0.7580    0.0030 C.ar     1 ZINC000000332913   -0.3300
5      C5     -2.4930   -0.1013    0.1172 C.ar     1 ZINC000000332913    0.2200
6      N6     -3.6046   -0.8174    0.1266 N.ar     1 ZINC000000332913   -0.5700
7      C7     -3.5709   -2.1328    0.0305 C.ar     1 ZINC000000332913    0.3700
8      N8     -2.4409   -2.8004   -0.0787 N.ar     1 ZINC000000332913   -0.5800
9      C9     -1.2733   -2.1647   -0.1028 C.ar     1 ZINC000000332913    0.4900
10     N10    -0.0929   -2.8677   -0.2176 N.pl3    1 ZINC000000332913   -0.8100
11     H11     0.8153    1.8413   -0.0430 H        1 ZINC000000332913    0.4100
12     H12    -0.8646    1.8175   -0.0410 H        1 ZINC000000332913    0.4000
13     H13    -2.5336    0.9750    0.1969 H        1 ZINC000000332913    0.1700
14     H14    -4.5015   -2.6807    0.0420 H        1 ZINC000000332913    0.2000
15     H15    -0.1115   -3.8271   -0.3594 H        1 ZINC000000332913    0.4100
16     H16     0.7563   -2.4029   -0.1566 H        1 ZINC000000332913    0.4300
@<TRIPOS>BOND
1     1     2     am
2     1     11    1
3     1     12    1
4     2     3     2
5     2     4     1
6     4     9     ar
7     4     5     ar
8     5     6     ar
9     5     13    1
10    6     7     ar
11    7     8     ar
12    7     14    1
13    8     9     ar
14    9     10    1
15    10    15    1
16    10    16    1
@<TRIPOS>SUBSTRUCTURE
1   ZINC000000332913 1     RESIDUE    1   A     ZIN   1
