@<TRIPOS>MOLECULE
ZINC000003881412
  45   46    0    0    0
SMALL
USER_CHARGES
NO_NAME
@<TRIPOS>ATOM
    1 C1       -0.0187     1.5258     0.0104 C.3    1 <0>      -0.1800
    2 C2        0.0021    -0.0041     0.0020 C.3    1 <0>       0.0900
    3 H3       -1.0204    -0.3818     0.0098 H      1 <0>       0.1100
    4 C4        0.7195    -0.4981    -1.2561 C.3    1 <0>      -0.1500
    5 C5        1.6058     0.6177    -1.8122 C.3    1 <0>      -0.0900
    6 C6        2.5083     0.0530    -2.9111 C.3    1 <0>      -0.1600
    7 C7        3.9343     0.4664    -2.6534 C.2    1 <0>       0.3700
    8 O8        4.2114     1.6357    -2.5340 O.2    1 <0>      -0.4600
    9 C9        5.0150    -0.5785    -2.5443 C.3    1 <0>      -0.1700
   10 C10       6.0834    -0.1064    -1.5560 C.3    1 <0>      -0.1100
   11 C11       6.7294    -1.3190    -0.8832 C.3    1 <0>      -0.1000
   12 C12       6.1089    -1.5333     0.4739 C.2    1 <0>      -0.1200
   13 C13       4.8134    -1.3125     0.6519 C.2    1 <0>      -0.1700
   14 C14       4.1930    -1.5193     1.9743 C.ar   1 <0>       0.0500
   15 C15       4.9494    -1.9773     3.0455 C.ar   1 <0>      -0.1700
   16 C16       4.3550    -2.1709     4.2853 C.ar   1 <0>       0.1700
   17 O17       5.1003    -2.6185     5.3275 O.3    1 <0>      -0.4900
   18 C18       3.0034    -1.9091     4.4661 C.ar   1 <0>      -0.2000
   19 C19       2.2319    -1.4516     3.4112 C.ar   1 <0>       0.1900
   20 O20       0.9121    -1.1979     3.5944 O.3    1 <0>      -0.4800
   21 C21       2.8178    -1.2505     2.1537 C.ar   1 <0>      -0.1800
   22 C22       2.0161    -0.7627     1.0259 C.2    1 <0>       0.5100
   23 O23       2.5407    -0.6040    -0.0593 O.2    1 <0>      -0.4900
   24 O24       0.7062    -0.4862     1.1788 O.3    1 <0>      -0.3300
   25 H25       1.0039     1.9031     0.0027 H      1 <0>       0.0700
   26 H26      -0.5459     1.8868    -0.8726 H      1 <0>       0.0800
   27 H27      -0.5289     1.8773     0.9072 H      1 <0>       0.0600
   28 H28       1.3363    -1.3616    -1.0068 H      1 <0>       0.1000
   29 H29      -0.0181    -0.7837    -2.0061 H      1 <0>       0.0600
   30 H30       0.9789     1.4070    -2.2269 H      1 <0>       0.0600
   31 H31       2.2214     1.0261    -1.0107 H      1 <0>       0.0800
   32 H32       2.4403    -1.0348    -2.9135 H      1 <0>       0.0900
   33 H33       2.1874     0.4391    -3.8786 H      1 <0>       0.0900
   34 H34       4.5813    -1.5141    -2.1911 H      1 <0>       0.0900
   35 H35       5.4690    -0.7352    -3.5228 H      1 <0>       0.1000
   36 H36       6.8455     0.4620    -2.0891 H      1 <0>       0.0700
   37 H37       5.6224     0.5268    -0.7979 H      1 <0>       0.0700
   38 H38       6.5697    -2.2039    -1.4993 H      1 <0>       0.0800
   39 H39       7.7992    -1.1442    -0.7697 H      1 <0>       0.0800
   40 H40       6.7214    -1.8668     1.2984 H      1 <0>       0.1100
   41 H41       4.2052    -0.9798    -0.1780 H      1 <0>       0.1800
   42 H42       6.0013    -2.1835     2.9137 H      1 <0>       0.1400
   43 H43       5.5070    -1.9146     5.8512 H      1 <0>       0.4000
   44 H44       2.5514    -2.0636     5.4347 H      1 <0>       0.1400
   45 H45       0.7203    -0.2909     3.8694 H      1 <0>       0.4000
@<TRIPOS>BOND
   1    1    2 1
   2    1   25 1
   3    1   26 1
   4    1   27 1
   5    2    3 1
   6    2   24 1
   7    2    4 1
   8    4    5 1
   9    4   28 1
  10    4   29 1
  11    5    6 1
  12    5   30 1
  13    5   31 1
  14    6    7 1
  15    6   32 1
  16    6   33 1
  17    7    8 2
  18    7    9 1
  19    9   10 1
  20    9   34 1
  21    9   35 1
  22   10   11 1
  23   10   36 1
  24   10   37 1
  25   11   12 1
  26   11   38 1
  27   11   39 1
  28   12   13 2
  29   12   40 1
  30   13   14 1
  31   13   41 1
  32   14   21 ar
  33   14   15 ar
  34   15   16 ar
  35   15   42 1
  36   16   17 1
  37   16   18 ar
  38   17   43 1
  39   18   19 ar
  40   18   44 1
  41   19   20 1
  42   19   21 ar
  43   20   45 1
  44   21   22 1
  45   22   23 2
  46   22   24 1
