@<TRIPOS>MOLECULE
ZINC000014717350
  62   65    0    0    0
SMALL
USER_CHARGES
NO_NAME
@<TRIPOS>ATOM
    1 C1        2.5650    -0.9161    -2.0906 C.3    1 <0>      -0.1500
    2 C2        1.5308    -0.9332    -0.9631 C.3    1 <0>      -0.1300
    3 C3        2.1309    -1.6133     0.2691 C.3    1 <0>      -0.1200
    4 C4        1.0968    -1.6303     1.3965 C.3    1 <0>      -0.1300
    5 C5        1.7136    -2.2648     2.6447 C.3    1 <0>      -0.0200
    6 H6        2.6138    -1.7226     2.9342 H      1 <0>       0.0900
    7 C7        2.0499    -3.7450     2.3757 C.3    1 <0>      -0.1100
    8 C8        2.4319    -4.4481     3.6760 C.3    1 <0>      -0.1300
    9 C9        1.2608    -5.2494     4.2512 C.3    1 <0>      -0.1200
   10 C10       1.3402    -5.2602     5.7802 C.3    1 <0>      -0.1300
   11 C11      -0.0474    -5.2652     6.4174 C.3    1 <0>      -0.1100
   12 C12      -0.4402    -3.8421     6.8619 C.3    1 <0>      -0.0600
   13 C13      -0.2410    -2.9551     5.6595 C.2    1 <0>       0.0800
   14 C14       0.9317    -2.9558     4.9672 C.2    1 <0>      -0.2400
   15 C15       0.7170    -2.2567     3.7767 C.2    1 <0>      -0.0700
   16 C16      -0.5322    -1.6646     3.8738 C.2    1 <0>      -0.0100
   17 C17      -1.1239    -0.8079     2.9313 C.2    1 <0>       0.1000
   18 C18      -2.2144    -0.0213     3.2934 C.2    1 <0>      -0.0300
   19 N19      -2.8009     0.0249     4.5077 N.2    1 <0>      -0.4900
   20 C20      -3.8083     0.8830     4.4867 C.2    1 <0>       0.2200
   21 C21      -4.6791     1.1949     5.6343 C.2    1 <0>       0.0600
   22 C22      -4.5823     0.6588     6.8868 C.2    1 <0>      -0.1500
   23 C23      -5.6005     1.2289     7.6649 C.2    1 <0>      -0.2100
   24 C24      -6.2867     2.0890     6.8792 C.2    1 <0>       0.0100
   25 N25      -5.7282     2.0803     5.6363 N.pl3  1 <0>      -0.5500
   26 C26      -3.9239     1.4547     3.2039 C.2    1 <0>      -0.3200
   27 C27      -2.9367     0.9169     2.4283 C.2    1 <0>       0.1200
   28 O28      -2.6823     1.1882     1.1215 O.3    1 <0>      -0.3000
   29 C29      -3.5344     2.1380     0.4782 C.3    1 <0>       0.0300
   30 N30      -1.0923    -2.0805     5.0787 N.pl3  1 <0>      -0.5100
   31 H31       2.8464    -1.9390    -2.3410 H      1 <0>       0.0500
   32 H32       2.1374    -0.4316    -2.9684 H      1 <0>       0.0500
   33 H33       3.4478    -0.3656    -1.7656 H      1 <0>       0.0500
   34 H34       1.2494     0.0896    -0.7127 H      1 <0>       0.0600
   35 H35       0.6480    -1.4837    -1.2882 H      1 <0>       0.0600
   36 H36       2.4123    -2.6361     0.0186 H      1 <0>       0.0700
   37 H37       3.0138    -1.0628     0.5941 H      1 <0>       0.0600
   38 H38       0.7886    -0.6095     1.6224 H      1 <0>       0.0700
   39 H39       0.2289    -2.2113     1.0847 H      1 <0>       0.0700
   40 H40       1.1812    -4.2389     1.9404 H      1 <0>       0.0600
   41 H41       2.8833    -3.8039     1.6755 H      1 <0>       0.0700
   42 H42       3.2647    -5.1244     3.4831 H      1 <0>       0.0600
   43 H43       2.7440    -3.7010     4.4058 H      1 <0>       0.0800
   44 H44       0.3216    -4.7919     3.9404 H      1 <0>       0.0700
   45 H45       1.3047    -6.2729     3.8789 H      1 <0>       0.0500
   46 H46       1.8824    -6.1494     6.1018 H      1 <0>       0.0600
   47 H47       1.8817    -4.3751     6.1144 H      1 <0>       0.0800
   48 H48      -0.7753    -5.6305     5.6930 H      1 <0>       0.0600
   49 H49      -0.0434    -5.9255     7.2846 H      1 <0>       0.0700
   50 H50      -1.4846    -3.8218     7.1732 H      1 <0>       0.0800
   51 H51       0.2019    -3.5144     7.6794 H      1 <0>       0.0900
   52 H52       1.8590    -3.4115     5.2818 H      1 <0>       0.1900
   53 H53      -0.7331    -0.7592     1.9256 H      1 <0>       0.1700
   54 H54      -3.8564    -0.0696     7.2168 H      1 <0>       0.1400
   55 H55      -5.8007     1.0183     8.7050 H      1 <0>       0.1400
   56 H56      -7.1329     2.6858     7.1862 H      1 <0>       0.1700
   57 H57      -6.0260     2.6068     4.8781 H      1 <0>       0.4100
   58 H58      -4.6548     2.1866     2.8929 H      1 <0>       0.1300
   59 H59      -3.2228     2.2618    -0.5590 H      1 <0>       0.1000
   60 H60      -4.5639     1.7812     0.5081 H      1 <0>       0.0600
   61 H61      -3.4665     3.0954     0.9947 H      1 <0>       0.0600
   62 H62      -1.9444    -1.7906     5.4405 H      1 <0>       0.4300
@<TRIPOS>BOND
   1    1    2 1
   2    1   31 1
   3    1   32 1
   4    1   33 1
   5    2    3 1
   6    2   34 1
   7    2   35 1
   8    3    4 1
   9    3   36 1
  10    3   37 1
  11    4    5 1
  12    4   38 1
  13    4   39 1
  14    5    6 1
  15    5   15 1
  16    5    7 1
  17    7    8 1
  18    7   40 1
  19    7   41 1
  20    8    9 1
  21    8   42 1
  22    8   43 1
  23    9   10 1
  24    9   44 1
  25    9   45 1
  26   10   11 1
  27   10   46 1
  28   10   47 1
  29   11   12 1
  30   11   48 1
  31   11   49 1
  32   12   13 1
  33   12   50 1
  34   12   51 1
  35   13   30 1
  36   13   14 2
  37   14   15 1
  38   14   52 1
  39   15   16 2
  40   16   17 1
  41   16   30 1
  42   17   18 2
  43   17   53 1
  44   18   27 1
  45   18   19 1
  46   19   20 2
  47   20   21 1
  48   20   26 1
  49   21   25 1
  50   21   22 2
  51   22   23 1
  52   22   54 1
  53   23   24 2
  54   23   55 1
  55   24   25 1
  56   24   56 1
  57   25   57 1
  58   26   27 2
  59   26   58 1
  60   27   28 1
  61   28   29 1
  62   29   59 1
  63   29   60 1
  64   29   61 1
  65   30   62 1
