@<TRIPOS>MOLECULE
ZINC000000680892
42    47    1     0     0
SMALL
USER_CHARGES
@<TRIPOS>ATOM
1      O1      0.0021   -0.0041    0.0020 O.2      1 ZINC000000680892   -0.4600
2      C2     -0.0144    1.2136    0.0087 C.2      1 ZINC000000680892    0.5700
3      C3     -1.2289    1.9314    0.0301 C.2      1 ZINC000000680892   -0.2600
4      C4     -2.4969    1.4239    0.0458 C.2      1 ZINC000000680892    0.1200
5      C5     -3.6055    2.2960    0.0665 C.2      1 ZINC000000680892   -0.0400
6      C6     -4.9360    1.9164    0.0893 C.2      1 ZINC000000680892   -0.1100
7      C7     -5.6912    3.0914    0.1042 C.2      1 ZINC000000680892   -0.1900
8      C8     -4.8014    4.1421    0.0901 C.2      1 ZINC000000680892    0.0800
9      C9     -5.1586    5.5730    0.0989 C.ar     1 ZINC000000680892   -0.0200
10     C10    -6.5015    5.9601    0.1292 C.ar     1 ZINC000000680892   -0.0600
11     C11    -6.8307    7.2977    0.1372 C.ar     1 ZINC000000680892   -0.1000
12     C12    -5.8297    8.2620    0.1152 C.ar     1 ZINC000000680892    0.1500
13     N13    -6.1690    9.6213    0.1234 N.pl3    1 ZINC000000680892   -0.3300
14     C14    -5.3266   10.6772    0.0995 C.2      1 ZINC000000680892    0.2300
15     N15    -6.0601   11.7593    0.1188 N.2      1 ZINC000000680892   -0.3300
16     N16    -7.3084   11.4597    0.1532 N.2      1 ZINC000000680892   -0.0300
17     N17    -7.4593   10.1791    0.1522 N.2      1 ZINC000000680892   -0.0700
18     C18    -4.4931    7.8815    0.0855 C.ar     1 ZINC000000680892   -0.1200
19     C19    -4.1550    6.5460    0.0826 C.ar     1 ZINC000000680892   -0.0700
20     O20    -3.5512    3.6445    0.0734 O.3      1 ZINC000000680892   -0.1500
21     S21    -0.7462    3.6372    0.0329 S.3      1 ZINC000000680892    0.1900
22     C22     0.9910    3.2877    0.0061 C.2      1 ZINC000000680892    0.2300
23     N23     2.1677    3.8663   -0.0075 N.2      1 ZINC000000680892   -0.4100
24     C24     3.1395    2.9193   -0.0267 C.ar     1 ZINC000000680892    0.0600
25     C25     4.5361    2.9749   -0.0458 C.ar     1 ZINC000000680892   -0.0600
26     C26     5.2647    1.8056   -0.0625 C.ar     1 ZINC000000680892   -0.1100
27     C27     4.6250    0.5758   -0.0605 C.ar     1 ZINC000000680892   -0.0900
28     C28     3.2452    0.5059   -0.0421 C.ar     1 ZINC000000680892   -0.1000
29     C29     2.5007    1.6722   -0.0247 C.ar     1 ZINC000000680892    0.0700
30     N30     1.1189    1.9258    0.0017 N.am     1 ZINC000000680892   -0.5000
31     H31    -2.6508    0.3549    0.0423 H        1 ZINC000000680892    0.1900
32     H32    -5.3173    0.9059    0.0942 H        1 ZINC000000680892    0.1700
33     H33    -6.7687    3.1623    0.1227 H        1 ZINC000000680892    0.1700
34     H34    -7.2798    5.2115    0.1460 H        1 ZINC000000680892    0.1500
35     H35    -7.8679    7.5976    0.1603 H        1 ZINC000000680892    0.1500
36     H36    -4.2478   10.6353    0.0706 H        1 ZINC000000680892    0.2400
37     H37    -3.7185    8.6339    0.0684 H        1 ZINC000000680892    0.1500
38     H38    -3.1163    6.2512    0.0595 H        1 ZINC000000680892    0.1500
39     H39     5.0413    3.9294   -0.0478 H        1 ZINC000000680892    0.1400
40     H40     6.3438    1.8476   -0.0776 H        1 ZINC000000680892    0.1400
41     H41     5.2085   -0.3329   -0.0737 H        1 ZINC000000680892    0.1400
42     H42     2.7503   -0.4540   -0.0413 H        1 ZINC000000680892    0.1400
@<TRIPOS>BOND
1     1     2     2
2     2     30    am
3     2     3     1
4     3     4     2
5     3     21    1
6     4     5     1
7     4     31    1
8     5     20    1
9     5     6     2
10    6     7     1
11    6     32    1
12    7     8     2
13    7     33    1
14    8     9     1
15    8     20    1
16    9     19    ar
17    9     10    ar
18    10    11    ar
19    10    34    1
20    11    12    ar
21    11    35    1
22    12    13    1
23    12    18    ar
24    13    17    1
25    13    14    1
26    14    15    2
27    14    36    1
28    15    16    1
29    16    17    2
30    18    19    ar
31    18    37    1
32    19    38    1
33    21    22    1
34    22    30    1
35    22    23    2
36    23    24    1
37    24    29    ar
38    24    25    ar
39    25    26    ar
40    25    39    1
41    26    27    ar
42    26    40    1
43    27    28    ar
44    27    41    1
45    28    29    ar
46    28    42    1
47    29    30    1
@<TRIPOS>SUBSTRUCTURE
1   ZINC000000680892 1     RESIDUE    1   A     ZIN   1
