@<TRIPOS>MOLECULE
ZINC000095574639
65    67    1     0     0
SMALL
USER_CHARGES
@<TRIPOS>ATOM
1      C1     -0.1506    0.1172    0.0506 C.3      1 ZINC000095574639   -0.1700
2      C2      0.8260   -1.0106   -0.2891 C.3      1 ZINC000095574639   -0.1100
3      C3      1.2438   -0.8987   -1.7567 C.3      1 ZINC000095574639    0.1600
4      H4      2.0707   -0.1943   -1.8463 H        1 ZINC000095574639    0.1100
5      C5      1.6791   -2.2510   -2.2596 C.2      1 ZINC000095574639    0.4600
6      O6      1.1010   -2.7652   -3.1876 O.2      1 ZINC000095574639   -0.4900
7      O7      2.7091   -2.8842   -1.6765 O.3      1 ZINC000095574639   -0.3500
8      C8      3.0733   -4.1833   -2.2132 C.3      1 ZINC000095574639    0.1200
9      C9      3.4615   -4.0362   -3.6858 C.3      1 ZINC000095574639   -0.1800
10     C10     4.2592   -4.7457   -1.4268 C.3      1 ZINC000095574639   -0.1400
11     C11     1.8830   -5.1369   -2.0924 C.3      1 ZINC000095574639   -0.1800
12     N12     0.1093   -0.4237   -2.5525 N.am     1 ZINC000095574639   -0.5900
13     C13    -1.0936   -0.9388   -2.2955 C.2      1 ZINC000095574639    0.5200
14     O14    -1.1795   -1.8007   -1.4466 O.2      1 ZINC000095574639   -0.4600
15     C15    -2.3477   -0.5083   -3.0006 C.3      1 ZINC000095574639   -0.0700
16     H16    -2.9478   -1.3860   -3.2405 H        1 ZINC000095574639    0.1100
17     C17    -3.1500    0.4219   -2.0884 C.3      1 ZINC000095574639   -0.1800
18     C18    -3.6156   -0.3425   -0.8760 C.2      1 ZINC000095574639    0.4800
19     O19    -3.3322   -1.5220   -0.7530 O.co2    1 ZINC000095574639   -0.6600
20     O20    -4.2758    0.2184   -0.0181 O.co2    1 ZINC000095574639   -0.7100
21     C21    -1.9911    0.2323   -4.2919 C.3      1 ZINC000095574639   -0.1100
22     C22    -0.9312    1.2915   -3.9663 C.3      1 ZINC000095574639   -0.0600
23     H23    -1.2744    1.9092   -3.1364 H        1 ZINC000095574639    0.1000
24     C24    -0.6932    2.1574   -5.1765 C.ar     1 ZINC000095574639   -0.0500
25     C25    -0.2503    1.5894   -6.3562 C.ar     1 ZINC000095574639   -0.1100
26     C26    -0.0322    2.3831   -7.4671 C.ar     1 ZINC000095574639   -0.1000
27     C27    -0.2564    3.7450   -7.3984 C.ar     1 ZINC000095574639   -0.1200
28     C28    -0.6997    4.3142   -6.2177 C.ar     1 ZINC000095574639   -0.0300
29     Cl29   -0.9822    6.0248   -6.1308 Cl       1 ZINC000095574639   -0.0700
30     C30    -0.9233    3.5187   -5.1082 C.ar     1 ZINC000095574639   -0.1000
31     C31     0.3650    0.5864   -3.5717 C.3      1 ZINC000095574639    0.2000
32     H32     0.7939    0.1030   -4.4495 H        1 ZINC000095574639    0.0800
33     C33     1.3411    1.6017   -3.0355 C.ar     1 ZINC000095574639   -0.0900
34     C34     0.9869    2.4029   -1.9661 C.ar     1 ZINC000095574639   -0.0900
35     C35     1.8817    3.3343   -1.4739 C.ar     1 ZINC000095574639   -0.1100
36     C36     3.1320    3.4646   -2.0517 C.ar     1 ZINC000095574639   -0.0300
37     Cl37    4.2565    4.6339   -1.4337 Cl       1 ZINC000095574639   -0.0700
38     C38     3.4858    2.6625   -3.1220 C.ar     1 ZINC000095574639   -0.1100
39     C39     2.5923    1.7276   -3.6097 C.ar     1 ZINC000095574639   -0.0900
40     H40     0.1666    1.0342   -0.4459 H        1 ZINC000095574639    0.0500
41     H41    -1.1502   -0.1531   -0.2895 H        1 ZINC000095574639    0.0900
42     H42    -0.1637    0.2738    1.1292 H        1 ZINC000095574639    0.0500
43     H43     1.7078   -0.9315    0.3468 H        1 ZINC000095574639    0.0600
44     H44     0.3422   -1.9729   -0.1214 H        1 ZINC000095574639    0.0900
45     H45     4.3096   -3.3568   -3.7718 H        1 ZINC000095574639    0.0600
46     H46     3.7349   -5.0114   -4.0886 H        1 ZINC000095574639    0.0700
47     H47     2.6167   -3.6355   -4.2460 H        1 ZINC000095574639    0.0800
48     H48     3.9826   -4.8505   -0.3777 H        1 ZINC000095574639    0.0700
49     H49     4.5326   -5.7209   -1.8297 H        1 ZINC000095574639    0.0800
50     H50     5.1072   -4.0663   -1.5129 H        1 ZINC000095574639    0.0600
51     H51     1.0381   -4.7362   -2.6526 H        1 ZINC000095574639    0.0900
52     H52     2.1564   -6.1121   -2.4952 H        1 ZINC000095574639    0.0700
53     H53     1.6064   -5.2417   -1.0432 H        1 ZINC000095574639    0.0600
54     H54    -2.5201    1.2539   -1.7735 H        1 ZINC000095574639    0.0500
55     H55    -4.0145    0.8054   -2.6302 H        1 ZINC000095574639    0.0700
56     H56    -1.5931   -0.4730   -5.0215 H        1 ZINC000095574639    0.0700
57     H57    -2.8809    0.7155   -4.6955 H        1 ZINC000095574639    0.0800
58     H58    -0.0743    0.5252   -6.4102 H        1 ZINC000095574639    0.1300
59     H59     0.3139    1.9387   -8.3886 H        1 ZINC000095574639    0.1300
60     H60    -0.0853    4.3649   -8.2660 H        1 ZINC000095574639    0.1300
61     H61    -1.2693    3.9624   -4.1864 H        1 ZINC000095574639    0.1300
62     H62     0.0107    2.3013   -1.5153 H        1 ZINC000095574639    0.1400
63     H63     1.6047    3.9604   -0.6386 H        1 ZINC000095574639    0.1400
64     H64     4.4616    2.7640   -3.5736 H        1 ZINC000095574639    0.1300
65     H65     2.8686    1.1011   -4.4449 H        1 ZINC000095574639    0.1300
@<TRIPOS>BOND
1     1     2     1
2     1     40    1
3     1     41    1
4     1     42    1
5     2     3     1
6     2     43    1
7     2     44    1
8     3     4     1
9     3     5     1
10    3     12    1
11    5     6     2
12    5     7     1
13    7     8     1
14    8     9     1
15    8     10    1
16    8     11    1
17    9     45    1
18    9     46    1
19    9     47    1
20    10    48    1
21    10    49    1
22    10    50    1
23    11    51    1
24    11    52    1
25    11    53    1
26    12    31    1
27    12    13    am
28    13    14    2
29    13    15    1
30    15    16    1
31    15    17    1
32    15    21    1
33    17    18    1
34    17    54    1
35    17    55    1
36    18    19    ar
37    18    20    ar
38    21    22    1
39    21    56    1
40    21    57    1
41    22    23    1
42    22    24    1
43    22    31    1
44    24    30    ar
45    24    25    ar
46    25    26    ar
47    25    58    1
48    26    27    ar
49    26    59    1
50    27    28    ar
51    27    60    1
52    28    29    1
53    28    30    ar
54    30    61    1
55    31    32    1
56    31    33    1
57    33    39    ar
58    33    34    ar
59    34    35    ar
60    34    62    1
61    35    36    ar
62    35    63    1
63    36    37    1
64    36    38    ar
65    38    39    ar
66    38    64    1
67    39    65    1
@<TRIPOS>SUBSTRUCTURE
1   ZINC000095574639 1     RESIDUE    1   A     ZIN   1
