@<TRIPOS>MOLECULE
ZINC000001531865
44    44    1     0     0
SMALL
USER_CHARGES
@<TRIPOS>ATOM
1      C1     -0.0187    1.5258    0.0104 C.3      1 ZINC000001531865   -0.1500
2      C2      0.0021   -0.0041    0.0020 C.3      1 ZINC000001531865   -0.1300
3      C3      0.7421   -0.5109    1.2415 C.3      1 ZINC000001531865   -0.1200
4      C4      0.7628   -2.0407    1.2331 C.3      1 ZINC000001531865   -0.1200
5      C5      1.5028   -2.5476    2.4727 C.3      1 ZINC000001531865   -0.1100
6      C6      1.5232   -4.0544    2.4644 C.2      1 ZINC000001531865   -0.0500
7      C7      2.6845   -4.7065    2.5505 C.2      1 ZINC000001531865   -0.2500
8      C8      2.7043   -6.1689    2.5425 C.2      1 ZINC000001531865    0.3800
9      O9      1.6651   -6.7893    2.4575 O.2      1 ZINC000001531865   -0.4600
10     C10     4.0156   -6.9053    2.6398 C.3      1 ZINC000001531865   -0.1600
11     C11     3.7573   -8.4130    2.6098 C.3      1 ZINC000001531865   -0.0700
12     C12     5.0685   -9.1493    2.7070 C.ar     1 ZINC000001531865   -0.0500
13     C13     5.7642   -9.4734    1.5576 C.ar     1 ZINC000001531865   -0.1400
14     C14     6.9677  -10.1494    1.6416 C.ar     1 ZINC000001531865   -0.1000
15     C15     7.4786  -10.5029    2.8797 C.ar     1 ZINC000001531865    0.0700
16     O16     8.6622  -11.1673    2.9640 O.3      1 ZINC000001531865   -0.4900
17     C17     6.7782  -10.1761    4.0373 C.ar     1 ZINC000001531865    0.1100
18     O18     7.2759  -10.5205    5.2551 O.3      1 ZINC000001531865   -0.3100
19     C19     6.5031  -10.1526    6.3995 C.3      1 ZINC000001531865    0.0200
20     C20     5.5758   -9.4943    3.9464 C.ar     1 ZINC000001531865   -0.1900
21     H21     1.0039    1.9031    0.0027 H        1 ZINC000001531865    0.0500
22     H22    -0.5459    1.8868   -0.8726 H        1 ZINC000001531865    0.0500
23     H23    -0.5289    1.8773    0.9072 H        1 ZINC000001531865    0.0500
24     H24    -1.0205   -0.3814    0.0098 H        1 ZINC000001531865    0.0600
25     H25     0.5123   -0.3556   -0.8948 H        1 ZINC000001531865    0.0600
26     H26     1.7647   -0.1336    1.2338 H        1 ZINC000001531865    0.0600
27     H27     0.2319   -0.1594    2.1383 H        1 ZINC000001531865    0.0600
28     H28    -0.2598   -2.4180    1.2409 H        1 ZINC000001531865    0.0700
29     H29     1.2730   -2.3923    0.3363 H        1 ZINC000001531865    0.0700
30     H30     2.5254   -2.1703    2.4649 H        1 ZINC000001531865    0.0700
31     H31     0.9926   -2.1961    3.3695 H        1 ZINC000001531865    0.0800
32     H32     0.5982   -4.6066    2.3887 H        1 ZINC000001531865    0.1200
33     H33     3.6096   -4.1543    2.6262 H        1 ZINC000001531865    0.1300
34     H34     4.6509   -6.6287    1.7983 H        1 ZINC000001531865    0.1000
35     H35     4.5127   -6.6403    3.5729 H        1 ZINC000001531865    0.1000
36     H36     3.1220   -8.6896    3.4512 H        1 ZINC000001531865    0.0800
37     H37     3.2601   -8.6780    1.6766 H        1 ZINC000001531865    0.0800
38     H38     5.3670   -9.1984    0.5917 H        1 ZINC000001531865    0.1300
39     H39     7.5090  -10.4021    0.7418 H        1 ZINC000001531865    0.1400
40     H40     9.4341  -10.5888    3.0311 H        1 ZINC000001531865    0.3900
41     H41     6.3868   -9.0692    6.4263 H        1 ZINC000001531865    0.0600
42     H42     5.5212  -10.6221    6.3410 H        1 ZINC000001531865    0.0600
43     H43     7.0120  -10.4860    7.3039 H        1 ZINC000001531865    0.1000
44     H44     5.0303   -9.2395    4.8431 H        1 ZINC000001531865    0.1300
@<TRIPOS>BOND
1     1     2     1
2     1     21    1
3     1     22    1
4     1     23    1
5     2     3     1
6     2     24    1
7     2     25    1
8     3     4     1
9     3     26    1
10    3     27    1
11    4     5     1
12    4     28    1
13    4     29    1
14    5     6     1
15    5     30    1
16    5     31    1
17    6     7     2
18    6     32    1
19    7     8     1
20    7     33    1
21    8     9     2
22    8     10    1
23    10    11    1
24    10    34    1
25    10    35    1
26    11    12    1
27    11    36    1
28    11    37    1
29    12    20    ar
30    12    13    ar
31    13    14    ar
32    13    38    1
33    14    15    ar
34    14    39    1
35    15    16    1
36    15    17    ar
37    16    40    1
38    17    18    1
39    17    20    ar
40    18    19    1
41    19    41    1
42    19    42    1
43    19    43    1
44    20    44    1
@<TRIPOS>SUBSTRUCTURE
1   ZINC000001531865 1     RESIDUE    1   A     ZIN   1
