@<TRIPOS>MOLECULE
ZINC000206769279
66    70    1     0     0
SMALL
USER_CHARGES
@<TRIPOS>ATOM
1      C1      0.0153    1.4001   -0.0414 C.3      1 ZINC000206769279    0.0300
2      O2      0.0665   -0.0279   -0.0256 O.3      1 ZINC000206769279   -0.3200
3      C3      0.7007   -0.6345   -1.0645 C.ar     1 ZINC000206769279    0.0600
4      C4      1.2657    0.1277   -2.0731 C.ar     1 ZINC000206769279   -0.0900
5      C5      1.9104   -0.4907   -3.1292 C.ar     1 ZINC000206769279   -0.6600
6      S6      2.6284    0.4820   -4.4111 S.o2     1 ZINC000206769279    2.5000
7      C7      4.3260    0.7884   -3.8499 C.3      1 ZINC000206769279   -0.6500
8      O8      2.6250   -0.3748   -5.5447 O.2      1 ZINC000206769279   -0.9400
9      O9      1.8747    1.6866   -4.4009 O.2      1 ZINC000206769279   -0.9400
10     C10     1.9933   -1.8694   -3.1816 C.ar     1 ZINC000206769279   -0.0200
11     C11     1.4318   -2.6377   -2.1786 C.ar     1 ZINC000206769279   -0.1600
12     C12     0.7884   -2.0245   -1.1138 C.ar     1 ZINC000206769279    0.2100
13     N13     0.2194   -2.8003   -0.0966 N.pl3    1 ZINC000206769279   -0.6100
14     C14     0.1548   -4.1858   -0.2303 C.2      1 ZINC000206769279    0.5000
15     N15    -0.4461   -5.0044    0.6099 N.2      1 ZINC000206769279   -0.3700
16     N16    -0.2780   -6.3038    0.1098 N.pl3    1 ZINC000206769279   -0.2700
17     C17    -0.6780   -7.5234    0.5514 C.2      1 ZINC000206769279    0.1400
18     C18    -0.3670   -8.6496   -0.1520 C.2      1 ZINC000206769279   -0.0800
19     C19    -0.8091   -9.9781    0.3395 C.ar     1 ZINC000206769279   -0.0600
20     C20    -0.3149  -10.4767    1.5437 C.ar     1 ZINC000206769279   -0.0800
21     C21    -0.7275  -11.7111    1.9987 C.ar     1 ZINC000206769279   -0.1200
22     C22    -1.6354  -12.4580    1.2578 C.ar     1 ZINC000206769279    0.1500
23     N23    -2.0525  -13.7101    1.7214 N.am     1 ZINC000206769279   -0.6700
24     C24    -2.2113  -13.9206    3.0432 C.2      1 ZINC000206769279    0.5200
25     O25    -1.9169  -13.0507    3.8355 O.2      1 ZINC000206769279   -0.5000
26     C26    -2.7547  -15.2368    3.5366 C.3      1 ZINC000206769279   -0.0700
27     H27    -2.0951  -16.0442    3.2187 H        1 ZINC000206769279    0.1100
28     C28    -4.1523  -15.4614    2.9560 C.3      1 ZINC000206769279   -0.1400
29     C29    -2.8333  -15.2153    5.0414 C.ar     1 ZINC000206769279   -0.0900
30     C30    -3.6204  -14.2742    5.6785 C.ar     1 ZINC000206769279   -0.0600
31     C31    -3.6933  -14.2536    7.0584 C.ar     1 ZINC000206769279   -0.1500
32     C32    -2.9780  -15.1763    7.8028 C.ar     1 ZINC000206769279    0.1000
33     F33    -3.0489  -15.1574    9.1518 F        1 ZINC000206769279   -0.1400
34     C34    -2.1904  -16.1187    7.1635 C.ar     1 ZINC000206769279   -0.1600
35     C35    -2.1229  -16.1405    5.7834 C.ar     1 ZINC000206769279   -0.0800
36     C36    -2.1298  -11.9628    0.0573 C.ar     1 ZINC000206769279   -0.1400
37     C37    -1.7237  -10.7267   -0.3993 C.ar     1 ZINC000206769279   -0.0800
38     C38     0.3756   -8.5503   -1.3487 C.2      1 ZINC000206769279   -0.0400
39     C39     0.7750   -7.3272   -1.7895 C.2      1 ZINC000206769279   -0.1100
40     C40     0.4414   -6.1807   -1.0448 C.2      1 ZINC000206769279    0.3100
41     N41     0.6849   -4.8866   -1.2286 N.2      1 ZINC000206769279   -0.5700
42     H42     1.0293    1.8001   -0.0394 H        1 ZINC000206769279    0.0600
43     H43    -0.5056    1.7351   -0.9383 H        1 ZINC000206769279    0.0600
44     H44    -0.5168    1.7544    0.8415 H        1 ZINC000206769279    0.1000
45     H45     1.2028    1.2052   -2.0353 H        1 ZINC000206769279    0.1500
46     H46     4.8436   -0.1623   -3.7220 H        1 ZINC000206769279    0.1300
47     H47     4.8506    1.3909   -4.5914 H        1 ZINC000206769279    0.1300
48     H48     4.3038    1.3208   -2.8990 H        1 ZINC000206769279    0.1300
49     H49     2.4976   -2.3477   -4.0082 H        1 ZINC000206769279    0.1500
50     H50     1.4980   -3.7148   -2.2220 H        1 ZINC000206769279    0.2000
51     H51    -0.1299   -2.3732    0.7013 H        1 ZINC000206769279    0.4300
52     H52    -1.2462   -7.6025    1.4665 H        1 ZINC000206769279    0.1700
53     H53     0.3910   -9.8967    2.1196 H        1 ZINC000206769279    0.1300
54     H54    -0.3445  -12.0980    2.9315 H        1 ZINC000206769279    0.1400
55     H55    -2.2275  -14.4268    1.0917 H        1 ZINC000206769279    0.4100
56     H56    -4.0954  -15.4769    1.8676 H        1 ZINC000206769279    0.0700
57     H57    -4.5453  -16.4134    3.3128 H        1 ZINC000206769279    0.0800
58     H58    -4.8119  -14.6539    3.2738 H        1 ZINC000206769279    0.0700
59     H59    -4.1782  -13.5546    5.0977 H        1 ZINC000206769279    0.1300
60     H60    -4.3077  -13.5178    7.5560 H        1 ZINC000206769279    0.1400
61     H61    -1.6318  -16.8387    7.7432 H        1 ZINC000206769279    0.1400
62     H62    -1.5089  -16.8757    5.2845 H        1 ZINC000206769279    0.1300
63     H63    -2.8353  -12.5450   -0.5169 H        1 ZINC000206769279    0.1300
64     H64    -2.1083  -10.3422   -1.3324 H        1 ZINC000206769279    0.1300
65     H65     0.6250   -9.4389   -1.9096 H        1 ZINC000206769279    0.1600
66     H66     1.3432   -7.2366   -2.7034 H        1 ZINC000206769279    0.1600
@<TRIPOS>BOND
1     1     2     1
2     1     42    1
3     1     43    1
4     1     44    1
5     2     3     1
6     3     12    ar
7     3     4     ar
8     4     5     ar
9     4     45    1
10    5     6     1
11    5     10    ar
12    6     7     1
13    6     8     2
14    6     9     2
15    7     46    1
16    7     47    1
17    7     48    1
18    10    11    ar
19    10    49    1
20    11    12    ar
21    11    50    1
22    12    13    1
23    13    14    1
24    13    51    1
25    14    41    1
26    14    15    2
27    15    16    1
28    16    40    1
29    16    17    1
30    17    18    2
31    17    52    1
32    18    19    1
33    18    38    1
34    19    37    ar
35    19    20    ar
36    20    21    ar
37    20    53    1
38    21    22    ar
39    21    54    1
40    22    23    1
41    22    36    ar
42    23    24    am
43    23    55    1
44    24    25    2
45    24    26    1
46    26    27    1
47    26    28    1
48    26    29    1
49    28    56    1
50    28    57    1
51    28    58    1
52    29    35    ar
53    29    30    ar
54    30    31    ar
55    30    59    1
56    31    32    ar
57    31    60    1
58    32    33    1
59    32    34    ar
60    34    35    ar
61    34    61    1
62    35    62    1
63    36    37    ar
64    36    63    1
65    37    64    1
66    38    39    2
67    38    65    1
68    39    40    1
69    39    66    1
70    40    41    2
@<TRIPOS>SUBSTRUCTURE
1   ZINC000206769279 1     RESIDUE    1   A     ZIN   1
