@<TRIPOS>MOLECULE
ZINC000101510955
63    67    1     0     0
SMALL
USER_CHARGES
@<TRIPOS>ATOM
1      C1     -0.0187    1.5258    0.0104 C.3      1 ZINC000101510955   -0.1500
2      C2      0.0021   -0.0041    0.0020 C.3      1 ZINC000101510955   -0.0900
3      C3     -1.4117   -0.5257    0.0127 C.ar     1 ZINC000101510955   -0.0600
4      C4     -2.0094   -0.8635    1.2252 C.ar     1 ZINC000101510955   -0.1100
5      C5     -3.2847   -1.3374    1.2700 C.ar     1 ZINC000101510955   -0.1000
6      C6     -4.0121   -1.4894    0.0776 C.ar     1 ZINC000101510955   -0.0600
7      C7     -5.3310   -1.9750    0.0838 C.ar     1 ZINC000101510955   -0.1100
8      C8     -6.0049   -2.1086   -1.0910 C.ar     1 ZINC000101510955   -0.1200
9      C9     -5.4070   -1.7708   -2.3038 C.ar     1 ZINC000101510955   -0.1200
10     C10    -4.1318   -1.2975   -2.3487 C.ar     1 ZINC000101510955   -0.1000
11     C11    -3.4040   -1.1458   -1.1559 C.ar     1 ZINC000101510955   -0.0300
12     C12    -2.0877   -0.6545   -1.1618 C.ar     1 ZINC000101510955   -0.0900
13     C13    -1.4258   -0.2774   -2.4620 C.3      1 ZINC000101510955    0.1600
14     N14    -1.6916    1.1334   -2.7541 N.am     1 ZINC000101510955   -0.7200
15     C15    -1.1952    1.6948   -3.8743 C.2      1 ZINC000101510955    0.6100
16     O16    -0.5265    1.0301   -4.6429 O.2      1 ZINC000101510955   -0.5600
17     C17    -1.4620    3.1108   -4.1674 C.ar     1 ZINC000101510955   -0.3100
18     C18    -0.5806    4.0998   -3.7091 C.ar     1 ZINC000101510955    0.2200
19     O19     0.5111    3.7506   -2.9835 O.3      1 ZINC000101510955   -0.3200
20     C20     1.3667    4.8094   -2.5485 C.3      1 ZINC000101510955    0.0400
21     C21    -0.8224    5.4312   -3.9961 C.ar     1 ZINC000101510955   -0.3600
22     C22    -1.9382    5.7859   -4.7441 C.ar     1 ZINC000101510955    0.3600
23     O23    -2.1712    7.0918   -5.0309 O.3      1 ZINC000101510955   -0.6600
24     C24    -2.8134    4.8143   -5.1989 C.ar     1 ZINC000101510955   -0.2900
25     C25    -2.6003    3.4735   -4.9139 C.ar     1 ZINC000101510955    0.1800
26     O26    -3.6049    2.7060   -5.4080 O.3      1 ZINC000101510955   -0.2300
27     C27    -4.6024    3.4391   -5.9003 C.2      1 ZINC000101510955    0.1300
28     C28    -5.8688    3.1072   -6.2323 C.2      1 ZINC000101510955   -0.2700
29     C29    -6.7139    4.2575   -6.6378 C.2      1 ZINC000101510955    0.4700
30     O30    -7.5074    4.1980   -7.5604 O.2      1 ZINC000101510955   -0.5200
31     C31    -6.5134    5.4946   -5.8246 C.2      1 ZINC000101510955   -0.5500
32     C32    -7.5626    6.3027   -5.4437 C.2      1 ZINC000101510955    0.3300
33     C33    -8.9709    5.9496   -5.8478 C.3      1 ZINC000101510955   -0.1500
34     O34    -7.3304    7.4037   -4.7130 O.3      1 ZINC000101510955   -0.6400
35     C35    -5.1097    5.7937   -5.4549 C.2      1 ZINC000101510955    0.4200
36     O36    -4.8152    6.7287   -4.7392 O.2      1 ZINC000101510955   -0.4300
37     C37    -4.0669    4.8596   -6.0302 C.3      1 ZINC000101510955   -0.0500
38     C38    -3.7659    5.2099   -7.4888 C.3      1 ZINC000101510955   -0.1100
39     H39     1.0039    1.9031    0.0027 H        1 ZINC000101510955    0.0600
40     H40    -0.5459    1.8868   -0.8726 H        1 ZINC000101510955    0.0700
41     H41    -0.5289    1.8773    0.9072 H        1 ZINC000101510955    0.0500
42     H42     0.5123   -0.3556   -0.8948 H        1 ZINC000101510955    0.0800
43     H43     0.5293   -0.3651    0.8851 H        1 ZINC000101510955    0.0700
44     H44    -1.4523   -0.7480    2.1432 H        1 ZINC000101510955    0.1200
45     H45    -3.7349   -1.5956    2.2171 H        1 ZINC000101510955    0.1200
46     H46    -5.8071   -2.2411    1.0160 H        1 ZINC000101510955    0.1200
47     H47    -7.0181   -2.4823   -1.0834 H        1 ZINC000101510955    0.1200
48     H48    -5.9639   -1.8867   -3.2219 H        1 ZINC000101510955    0.1200
49     H49    -3.6813   -1.0401   -3.2959 H        1 ZINC000101510955    0.1300
50     H50    -0.3503   -0.4354   -2.3815 H        1 ZINC000101510955    0.0800
51     H51    -1.8247   -0.8962   -3.2658 H        1 ZINC000101510955    0.0700
52     H52    -2.2248    1.6635   -2.1412 H        1 ZINC000101510955    0.4000
53     H53     2.1989    4.3938   -1.9804 H        1 ZINC000101510955    0.0800
54     H54     1.7509    5.3457   -3.4161 H        1 ZINC000101510955    0.0500
55     H55     0.8028    5.4961   -1.9172 H        1 ZINC000101510955    0.0500
56     H56    -0.1455    6.1934   -3.6393 H        1 ZINC000101510955    0.1100
57     H57    -6.2349    2.0915   -6.2052 H        1 ZINC000101510955    0.1400
58     H58    -9.2309    4.9718   -5.4423 H        1 ZINC000101510955    0.0600
59     H59    -9.6594    6.6993   -5.4581 H        1 ZINC000101510955    0.0500
60     H60    -9.0408    5.9224   -6.9352 H        1 ZINC000101510955    0.0700
61     H61    -3.3797    6.2276   -7.5458 H        1 ZINC000101510955    0.0700
62     H62    -3.0229    4.5167   -7.8831 H        1 ZINC000101510955    0.0500
63     H63    -4.6807    5.1350   -8.0767 H        1 ZINC000101510955    0.0500
@<TRIPOS>BOND
1     1     2     1
2     1     39    1
3     1     40    1
4     1     41    1
5     2     3     1
6     2     42    1
7     2     43    1
8     3     12    ar
9     3     4     ar
10    4     5     ar
11    4     44    1
12    5     6     ar
13    5     45    1
14    6     11    ar
15    6     7     ar
16    7     8     ar
17    7     46    1
18    8     9     ar
19    8     47    1
20    9     10    ar
21    9     48    1
22    10    11    ar
23    10    49    1
24    11    12    ar
25    12    13    1
26    13    14    1
27    13    50    1
28    13    51    1
29    14    15    am
30    14    52    1
31    15    16    2
32    15    17    1
33    17    25    ar
34    17    18    ar
35    18    19    1
36    18    21    ar
37    19    20    1
38    20    53    1
39    20    54    1
40    20    55    1
41    21    22    ar
42    21    56    1
43    22    23    1
44    22    24    ar
45    24    37    1
46    24    25    ar
47    25    26    1
48    26    27    1
49    27    37    1
50    27    28    2
51    28    29    1
52    28    57    1
53    29    30    2
54    29    31    1
55    31    32    2
56    31    35    1
57    32    33    1
58    32    34    1
59    33    58    1
60    33    59    1
61    33    60    1
62    35    36    2
63    35    37    1
64    37    38    1
65    38    61    1
66    38    62    1
67    38    63    1
@<TRIPOS>SUBSTRUCTURE
1   ZINC000101510955 1     RESIDUE    1   A     ZIN   1
