@<TRIPOS>MOLECULE
ZINC000003995991
80    82    1     0     0
SMALL
USER_CHARGES
@<TRIPOS>ATOM
1      C1      0.5548   -0.9406    1.5059 C.3      1 ZINC000003995991   -0.1400
2      C2      0.0892   -0.3089    0.1925 C.3      1 ZINC000003995991   -0.1200
3      C3      0.9284   -0.8576   -0.9630 C.3      1 ZINC000003995991   -0.1100
4      S4     -1.6580   -0.7099   -0.0854 S.3      1 ZINC000003995991   -0.1200
5      C5     -2.4487   -0.0484    1.3436 C.ar     1 ZINC000003995991   -0.0500
6      C6     -1.7247    0.7203    2.2472 C.ar     1 ZINC000003995991   -0.0900
7      C7     -2.3477    1.2370    3.3659 C.ar     1 ZINC000003995991   -0.1000
8      C8     -3.6903    0.9905    3.5878 C.ar     1 ZINC000003995991   -0.1100
9      C9     -4.3666    1.5562    4.8099 C.3      1 ZINC000003995991   -0.0900
10     C10    -4.9363    2.9383    4.4838 C.3      1 ZINC000003995991    0.1100
11     N11    -5.5936    3.4882    5.6720 N.am     1 ZINC000003995991   -0.6300
12     C12    -4.8288    4.2983    6.6233 C.3      1 ZINC000003995991    0.1300
13     C13    -4.9034    5.7708    6.2148 C.3      1 ZINC000003995991   -0.1300
14     C14    -4.1047    6.6168    7.2084 C.3      1 ZINC000003995991   -0.1200
15     C15    -4.1793    8.0894    6.7999 C.3      1 ZINC000003995991   -0.1100
16     C16    -3.3806    8.9354    7.7935 C.3      1 ZINC000003995991   -0.0900
17     C17    -1.8989    8.5649    7.7032 C.3      1 ZINC000003995991   -0.1200
18     C18    -1.1002    9.4109    8.6968 C.3      1 ZINC000003995991   -0.1200
19     C19    -1.2765   10.8933    8.3617 C.3      1 ZINC000003995991   -0.1200
20     C20    -2.7582   11.2638    8.4520 C.3      1 ZINC000003995991   -0.1200
21     C21    -3.5570   10.4178    7.4584 C.3      1 ZINC000003995991   -0.1200
22     C22    -6.9020    3.2490    5.8897 C.2      1 ZINC000003995991    0.7100
23     O23    -7.4476    3.7054    6.8758 O.2      1 ZINC000003995991   -0.5900
24     N24    -7.6056    2.5037    5.0145 N.am     1 ZINC000003995991   -0.7400
25     C25    -9.0277    2.2437    5.2512 C.3      1 ZINC000003995991    0.1600
26     C26    -9.8571    3.4065    4.7027 C.3      1 ZINC000003995991   -0.1300
27     C27   -11.3423    3.1349    4.9500 C.3      1 ZINC000003995991   -0.1200
28     C28   -11.7487    1.8405    4.2427 C.3      1 ZINC000003995991   -0.1200
29     C29   -10.9194    0.6776    4.7912 C.3      1 ZINC000003995991   -0.1100
30     C30    -9.4341    0.9492    4.5439 C.3      1 ZINC000003995991   -0.1300
31     C31    -4.4140    0.2264    2.6905 C.ar     1 ZINC000003995991   -0.1100
32     C32    -3.7990   -0.2893    1.5668 C.ar     1 ZINC000003995991   -0.1100
33     C33     0.2554    1.1871    0.2680 C.2      1 ZINC000003995991    0.5000
34     O34     1.3601    1.6692    0.4514 O.co2    1 ZINC000003995991   -0.6800
35     O35    -0.7149    1.9152    0.1456 O.co2    1 ZINC000003995991   -0.6600
36     H36     1.5566   -0.5842    1.7455 H        1 ZINC000003995991    0.0700
37     H37    -0.1309   -0.6622    2.3062 H        1 ZINC000003995991    0.0600
38     H38     0.5703   -2.0255    1.4019 H        1 ZINC000003995991    0.0500
39     H39     0.7608   -1.9306   -1.0563 H        1 ZINC000003995991    0.0500
40     H40     0.6384   -0.3626   -1.8898 H        1 ZINC000003995991    0.0600
41     H41     1.9841   -0.6706   -0.7662 H        1 ZINC000003995991    0.0700
42     H42    -0.6761    0.9130    2.0748 H        1 ZINC000003995991    0.1400
43     H43    -1.7856    1.8342    4.0687 H        1 ZINC000003995991    0.1200
44     H44    -5.1752    0.8932    5.1174 H        1 ZINC000003995991    0.0700
45     H45    -3.6411    1.6439    5.6188 H        1 ZINC000003995991    0.0700
46     H46    -4.1276    3.6013    4.1764 H        1 ZINC000003995991    0.0900
47     H47    -5.6617    2.8506    3.6750 H        1 ZINC000003995991    0.0700
48     H48    -5.2471    4.1768    7.6225 H        1 ZINC000003995991    0.0800
49     H49    -3.7884    3.9734    6.6230 H        1 ZINC000003995991    0.0800
50     H50    -4.4852    5.8924    5.2157 H        1 ZINC000003995991    0.0600
51     H51    -5.9439    6.0957    6.2151 H        1 ZINC000003995991    0.0600
52     H52    -4.5230    6.4953    8.2076 H        1 ZINC000003995991    0.0600
53     H53    -3.0643    6.2920    7.2081 H        1 ZINC000003995991    0.0700
54     H54    -3.7611    8.2109    5.8007 H        1 ZINC000003995991    0.0600
55     H55    -5.2198    8.4143    6.8002 H        1 ZINC000003995991    0.0600
56     H56    -3.7416    8.7460    8.8044 H        1 ZINC000003995991    0.0700
57     H57    -1.7733    7.5088    7.9420 H        1 ZINC000003995991    0.0700
58     H58    -1.5380    8.7543    6.6923 H        1 ZINC000003995991    0.0600
59     H59    -1.4611    9.2215    9.7077 H        1 ZINC000003995991    0.0600
60     H60    -0.0446    9.1469    8.6325 H        1 ZINC000003995991    0.0600
61     H61    -0.7075   11.4960    9.0696 H        1 ZINC000003995991    0.0600
62     H62    -0.9156   11.0827    7.3508 H        1 ZINC000003995991    0.0600
63     H63    -3.1192   11.0744    9.4629 H        1 ZINC000003995991    0.0600
64     H64    -2.8839   12.3199    8.2133 H        1 ZINC000003995991    0.0600
65     H65    -3.1960   10.6072    6.4475 H        1 ZINC000003995991    0.0600
66     H66    -4.6126   10.6818    7.5228 H        1 ZINC000003995991    0.0600
67     H67    -7.1703    2.1396    4.2278 H        1 ZINC000003995991    0.4000
68     H68    -9.2055    2.1439    6.3220 H        1 ZINC000003995991    0.0900
69     H69    -9.5675    4.3287    5.2066 H        1 ZINC000003995991    0.0700
70     H70    -9.6793    3.5063    3.6320 H        1 ZINC000003995991    0.0600
71     H71   -11.5201    3.0351    6.0207 H        1 ZINC000003995991    0.0600
72     H72   -11.9331    3.9634    4.5592 H        1 ZINC000003995991    0.0600
73     H73   -12.8068    1.6470    4.4188 H        1 ZINC000003995991    0.0600
74     H74   -11.5709    1.9403    3.1719 H        1 ZINC000003995991    0.0600
75     H75   -11.0972    0.5778    5.8619 H        1 ZINC000003995991    0.0600
76     H76   -11.2089   -0.2445    4.2873 H        1 ZINC000003995991    0.0700
77     H77    -9.2563    1.0490    3.4732 H        1 ZINC000003995991    0.0700
78     H78    -8.8433    0.1208    4.9347 H        1 ZINC000003995991    0.0700
79     H79    -5.4624    0.0361    2.8667 H        1 ZINC000003995991    0.1100
80     H80    -4.3649   -0.8856    0.8664 H        1 ZINC000003995991    0.1200
@<TRIPOS>BOND
1     1     2     1
2     1     36    1
3     1     37    1
4     1     38    1
5     2     3     1
6     2     4     1
7     2     33    1
8     3     39    1
9     3     40    1
10    3     41    1
11    4     5     1
12    5     32    ar
13    5     6     ar
14    6     7     ar
15    6     42    1
16    7     8     ar
17    7     43    1
18    8     9     1
19    8     31    ar
20    9     10    1
21    9     44    1
22    9     45    1
23    10    11    1
24    10    46    1
25    10    47    1
26    11    12    1
27    11    22    am
28    12    13    1
29    12    48    1
30    12    49    1
31    13    14    1
32    13    50    1
33    13    51    1
34    14    15    1
35    14    52    1
36    14    53    1
37    15    16    1
38    15    54    1
39    15    55    1
40    16    21    1
41    16    17    1
42    16    56    1
43    17    18    1
44    17    57    1
45    17    58    1
46    18    19    1
47    18    59    1
48    18    60    1
49    19    20    1
50    19    61    1
51    19    62    1
52    20    21    1
53    20    63    1
54    20    64    1
55    21    65    1
56    21    66    1
57    22    23    2
58    22    24    am
59    24    25    1
60    24    67    1
61    25    30    1
62    25    26    1
63    25    68    1
64    26    27    1
65    26    69    1
66    26    70    1
67    27    28    1
68    27    71    1
69    27    72    1
70    28    29    1
71    28    73    1
72    28    74    1
73    29    30    1
74    29    75    1
75    29    76    1
76    30    77    1
77    30    78    1
78    31    32    ar
79    31    79    1
80    32    80    1
81    33    34    ar
82    33    35    ar
@<TRIPOS>SUBSTRUCTURE
1   ZINC000003995991 1     RESIDUE    1   A     ZIN   1
