@<TRIPOS>MOLECULE
ZINC000001227906
35    36    1     0     0
SMALL
USER_CHARGES
@<TRIPOS>ATOM
1      C1      1.2666    1.1139    0.9967 C.3      1 ZINC000001227906   -0.1400
2      C2      1.0195   -0.3845    0.8108 C.3      1 ZINC000001227906   -0.1100
3      C3      1.5277   -1.1416    2.0393 C.3      1 ZINC000001227906   -0.1400
4      C4     -0.4799   -0.6369    0.6405 C.3      1 ZINC000001227906    0.0500
5      H5     -1.0100   -0.2885    1.5269 H        1 ZINC000001227906    0.1000
6      C6     -0.9806    0.1088   -0.5697 C.2      1 ZINC000001227906    0.5000
7      O7     -1.3187   -0.5051   -1.5673 O.co2    1 ZINC000001227906   -0.6600
8      O8     -1.0474    1.3261   -0.5511 O.co2    1 ZINC000001227906   -0.6700
9      N9     -0.7166   -2.0716    0.4624 N.am     1 ZINC000001227906   -0.4800
10     C10    -1.4828   -2.7311    1.3152 C.2      1 ZINC000001227906    0.5400
11     O11    -2.0169   -2.1927    2.2668 O.2      1 ZINC000001227906   -0.4700
12     C12    -1.6405   -4.1628    1.0261 C.2      1 ZINC000001227906   -0.2200
13     C13    -2.3600   -5.0799    1.7195 C.2      1 ZINC000001227906    0.0400
14     C14    -2.2711   -6.5037    1.3661 C.ar     1 ZINC000001227906   -0.0600
15     C15    -1.1673   -6.9835    0.6518 C.ar     1 ZINC000001227906   -0.0900
16     C16    -1.0912   -8.3201    0.3241 C.ar     1 ZINC000001227906   -0.0800
17     C17    -2.1035   -9.1878    0.6997 C.ar     1 ZINC000001227906   -0.0800
18     Br18   -1.9888  -11.0198    0.2454 Br       1 ZINC000001227906   -0.0500
19     C19    -3.1992   -8.7205    1.4068 C.ar     1 ZINC000001227906   -0.0900
20     C20    -3.2870   -7.3877    1.7470 C.ar     1 ZINC000001227906   -0.0800
21     S21    -0.6728   -4.4156   -0.4402 S.3      1 ZINC000001227906    0.0600
22     C22    -0.1636   -2.7228   -0.5672 C.2      1 ZINC000001227906    0.2500
23     S23     0.8496   -2.0509   -1.7725 S.2      1 ZINC000001227906   -0.2800
24     H24     2.3348    1.2936    1.1181 H        1 ZINC000001227906    0.0400
25     H25     0.9045    1.6532    0.1215 H        1 ZINC000001227906    0.0900
26     H26     0.7365    1.4623    1.8832 H        1 ZINC000001227906    0.0400
27     H27     1.5495   -0.7329   -0.0757 H        1 ZINC000001227906    0.1100
28     H28     1.3517   -2.2091    1.9068 H        1 ZINC000001227906    0.0400
29     H29     2.5959   -0.9618    2.1607 H        1 ZINC000001227906    0.0600
30     H30     0.9977   -0.7932    2.9258 H        1 ZINC000001227906    0.0500
31     H31    -2.9983   -4.7639    2.5314 H        1 ZINC000001227906    0.1600
32     H32    -0.3775   -6.3081    0.3580 H        1 ZINC000001227906    0.1500
33     H33    -0.2402   -8.6917   -0.2274 H        1 ZINC000001227906    0.1400
34     H34    -3.9845   -9.4031    1.6962 H        1 ZINC000001227906    0.1400
35     H35    -4.1419   -7.0249    2.2983 H        1 ZINC000001227906    0.1400
@<TRIPOS>BOND
1     1     2     1
2     1     24    1
3     1     25    1
4     1     26    1
5     2     3     1
6     2     4     1
7     2     27    1
8     3     28    1
9     3     29    1
10    3     30    1
11    4     5     1
12    4     6     1
13    4     9     1
14    6     7     ar
15    6     8     ar
16    9     22    am
17    9     10    am
18    10    11    2
19    10    12    1
20    12    13    2
21    12    21    1
22    13    14    1
23    13    31    1
24    14    20    ar
25    14    15    ar
26    15    16    ar
27    15    32    1
28    16    17    ar
29    16    33    1
30    17    18    1
31    17    19    ar
32    19    20    ar
33    19    34    1
34    20    35    1
35    21    22    1
36    22    23    2
@<TRIPOS>SUBSTRUCTURE
1   ZINC000001227906 1     RESIDUE    1   A     ZIN   1
