@<TRIPOS>MOLECULE
ZINC000036124449
  44   47    0    0    0
SMALL
USER_CHARGES
NO_NAME
@<TRIPOS>ATOM
    1 N1       -0.0116     1.0048     0.0076 N.4    1 <0>      -0.6400
    2 H2        0.0021    -0.0041     0.0020 H      1 <0>       0.4300
    3 H3        0.9350     1.3541     0.0004 H      1 <0>       0.4400
    4 H4       -0.4996     1.3391    -0.8099 H      1 <0>       0.4400
    5 C5       -0.6992     1.4786     1.2162 C.3    1 <0>       0.0300
    6 C6       -2.1346     0.9490     1.2270 C.3    1 <0>      -0.1400
    7 C7       -2.8507     1.4424     2.4858 C.3    1 <0>      -0.1300
    8 C8       -2.1107     0.9356     3.7254 C.3    1 <0>       0.1600
    9 N9       -2.0909    -0.5293     3.7173 N.pl3  1 <0>      -0.7000
   10 C10      -1.9656    -1.2262     4.9066 C.ar   1 <0>       0.5700
   11 N11      -1.8703    -0.5517     6.0431 N.ar   1 <0>      -0.5800
   12 C12      -1.7491    -1.1811     7.2025 C.ar   1 <0>       0.2000
   13 C13      -1.7221    -2.5621     7.2228 C.ar   1 <0>      -0.2800
   14 C14      -1.8247    -3.2490     6.0072 C.ar   1 <0>       0.3100
   15 C15      -1.8008    -4.7272     5.9754 C.2    1 <0>      -0.1500
   16 C16      -1.6908    -5.5612     7.0413 C.2    1 <0>       0.1300
   17 N17      -1.7053    -6.8555     6.6168 N.pl3  1 <0>      -0.5700
   18 C18      -1.8264    -6.9096     5.2474 C.ar   1 <0>       0.2800
   19 N19      -1.8853    -7.9145     4.3834 N.ar   1 <0>      -0.4900
   20 C20      -2.0044    -7.7074     3.0891 C.ar   1 <0>       0.1400
   21 C21      -2.0744    -6.4273     2.5630 C.ar   1 <0>      -0.2000
   22 C22      -2.0180    -5.3396     3.4158 C.ar   1 <0>      -0.0200
   23 C23      -1.8982    -5.5840     4.7831 C.ar   1 <0>      -0.1200
   24 N24      -1.9496    -2.5497     4.8797 N.ar   1 <0>      -0.5700
   25 C25      -0.6753     1.4652     3.7145 C.3    1 <0>      -0.1300
   26 C26       0.0408     0.9717     2.4557 C.3    1 <0>      -0.1400
   27 H27      -0.7140     2.5685     1.2222 H      1 <0>       0.1400
   28 H28      -2.6618     1.3101     0.3440 H      1 <0>       0.0900
   29 H29      -2.1198    -0.1409     1.2210 H      1 <0>       0.0800
   30 H30      -2.8655     2.5323     2.4918 H      1 <0>       0.0900
   31 H31      -3.8733     1.0651     2.4936 H      1 <0>       0.0900
   32 H32      -2.6209     1.2871     4.6222 H      1 <0>       0.1100
   33 H33      -2.1655    -1.0107     2.8785 H      1 <0>       0.4100
   34 H34      -1.6718    -0.6204     8.1223 H      1 <0>       0.1700
   35 H35      -1.6238    -3.0993     8.1546 H      1 <0>       0.1500
   36 H36      -1.6043    -5.2458     8.0706 H      1 <0>       0.1900
   37 H37      -1.6392    -7.6295     7.1978 H      1 <0>       0.4300
   38 H38      -2.0483    -8.5550     2.4213 H      1 <0>       0.1600
   39 H39      -2.1717    -6.2802     1.4975 H      1 <0>       0.1400
   40 H40      -2.0702    -4.3306     3.0341 H      1 <0>       0.1400
   41 H41      -0.6901     2.5550     3.7205 H      1 <0>       0.0800
   42 H42      -0.1482     1.1041     4.5976 H      1 <0>       0.0900
   43 H43       0.0556    -0.1181     2.4497 H      1 <0>       0.0900
   44 H44       1.0634     1.3490     2.4480 H      1 <0>       0.0900
@<TRIPOS>BOND
   1    1    2 1
   2    1    3 1
   3    1    4 1
   4    1    5 1
   5    5   26 1
   6    5    6 1
   7    5   27 1
   8    6    7 1
   9    6   28 1
  10    6   29 1
  11    7    8 1
  12    7   30 1
  13    7   31 1
  14    8    9 1
  15    8   25 1
  16    8   32 1
  17    9   10 1
  18    9   33 1
  19   10   24 ar
  20   10   11 ar
  21   11   12 ar
  22   12   13 ar
  23   12   34 1
  24   13   14 ar
  25   13   35 1
  26   14   15 1
  27   14   24 ar
  28   15   23 1
  29   15   16 2
  30   16   17 1
  31   16   36 1
  32   17   18 1
  33   17   37 1
  34   18   23 ar
  35   18   19 ar
  36   19   20 ar
  37   20   21 ar
  38   20   38 1
  39   21   22 ar
  40   21   39 1
  41   22   23 ar
  42   22   40 1
  43   25   26 1
  44   25   41 1
  45   25   42 1
  46   26   43 1
  47   26   44 1
