@<TRIPOS>MOLECULE
ZINC000000116168
24    25    1     0     0
SMALL
USER_CHARGES
@<TRIPOS>ATOM
1      C1     -0.0173    1.4248    0.0099 C.3      1 ZINC000000116168    0.0400
2      O2      0.0021   -0.0041    0.0020 O.3      1 ZINC000000116168   -0.3600
3      C3     -1.1928   -0.6335    0.0100 C.2      1 ZINC000000116168    0.5500
4      O4     -2.2230    0.0158    0.0234 O.2      1 ZINC000000116168   -0.5300
5      C5     -1.2475   -2.0419    0.0030 C.2      1 ZINC000000116168   -0.3800
6      C6     -2.4030   -2.7911    0.0045 C.2      1 ZINC000000116168    0.3100
7      N7     -3.6724   -2.2195    0.0130 N.pl3    1 ZINC000000116168   -0.8300
8      C8     -2.1986   -4.1494   -0.0034 C.2      1 ZINC000000116168   -0.2000
9      C9     -0.8868   -4.5300   -0.0116 C.2      1 ZINC000000116168   -0.0400
10     C10    -0.4117   -5.9210   -0.0217 C.2      1 ZINC000000116168   -0.1500
11     C11     0.8946   -6.3074   -0.0244 C.2      1 ZINC000000116168   -0.1100
12     C12     1.0852   -7.6714   -0.0339 C.2      1 ZINC000000116168   -0.1300
13     C13    -0.0344   -8.4026   -0.0391 C.2      1 ZINC000000116168   -0.2000
14     S14    -1.4407   -7.3474   -0.0247 S.3      1 ZINC000000116168    0.1600
15     S15     0.1490   -3.1098   -0.0167 S.3      1 ZINC000000116168    0.2300
16     H16     1.0053    1.8021    0.0021 H        1 ZINC000000116168    0.1000
17     H17    -0.5445    1.7859   -0.8732 H        1 ZINC000000116168    0.0600
18     H18    -0.5275    1.7763    0.9067 H        1 ZINC000000116168    0.0600
19     H19    -3.7698   -1.2544    0.0181 H        1 ZINC000000116168    0.4200
20     H20    -4.4596   -2.7864    0.0138 H        1 ZINC000000116168    0.4000
21     H21    -3.0114   -4.8606   -0.0030 H        1 ZINC000000116168    0.1500
22     H22     1.7129   -5.6026   -0.0200 H        1 ZINC000000116168    0.1500
23     H23     2.0684   -8.1184   -0.0373 H        1 ZINC000000116168    0.1500
24     H24    -0.0696   -9.4820   -0.0472 H        1 ZINC000000116168    0.1700
@<TRIPOS>BOND
1     1     2     1
2     1     16    1
3     1     17    1
4     1     18    1
5     2     3     1
6     3     4     2
7     3     5     1
8     5     15    1
9     5     6     2
10    6     7     1
11    6     8     1
12    7     19    1
13    7     20    1
14    8     9     2
15    8     21    1
16    9     10    1
17    9     15    1
18    10    14    1
19    10    11    2
20    11    12    1
21    11    22    1
22    12    13    2
23    12    23    1
24    13    14    1
25    13    24    1
@<TRIPOS>SUBSTRUCTURE
1   ZINC000000116168 1     RESIDUE    1   A     ZIN   1
