@<TRIPOS>MOLECULE
ZINC000012504456
  53   55    0    0    0
SMALL
USER_CHARGES
NO_NAME
@<TRIPOS>ATOM
    1 C1       -0.0187     1.5258     0.0104 C.3    1 <0>      -0.1500
    2 C2        0.0021    -0.0041     0.0020 C.3    1 <0>      -0.1300
    3 C3       -1.4333    -0.5336     0.0129 C.3    1 <0>       0.1700
    4 H4       -1.9701    -0.1109     0.8621 H      1 <0>       0.1000
    5 C5       -1.4133    -2.0590     0.1302 C.3    1 <0>       0.0600
    6 O6       -0.6117    -2.6069    -0.9183 O.3    1 <0>      -0.5700
    7 N7       -2.1054    -0.1483    -1.2305 N.pl3  1 <0>      -0.6800
    8 C8       -3.4856    -0.0365    -1.2658 C.ar   1 <0>       0.6300
    9 N9       -4.1764    -0.2783    -0.1591 N.ar   1 <0>      -0.6200
   10 C10      -5.5014    -0.1843    -0.1425 C.ar   1 <0>       0.5400
   11 N11      -6.2133    -0.4379     1.0165 N.pl3  1 <0>      -0.6900
   12 C12      -5.5061    -0.8147     2.2430 C.3    1 <0>       0.1800
   13 C13      -6.5038    -1.0337     3.3510 C.ar   1 <0>      -0.1400
   14 C14      -6.7262    -0.0423     4.2867 C.ar   1 <0>      -0.0800
   15 C15      -7.6412    -0.2428     5.3040 C.ar   1 <0>      -0.1300
   16 C16      -8.3357    -1.4352     5.3871 C.ar   1 <0>      -0.0900
   17 C17      -8.1172    -2.4298     4.4534 C.ar   1 <0>      -0.1500
   18 C18      -7.2038    -2.2292     3.4289 C.ar   1 <0>       0.1200
   19 O19      -6.9870    -3.2060     2.5093 O.3    1 <0>      -0.4900
   20 C20      -6.1645     0.1787    -1.3273 C.ar   1 <0>      -0.1600
   21 N21      -7.4624     0.3659    -1.6720 N.2    1 <0>      -0.4600
   22 C22      -7.5329     0.7031    -2.9265 C.2    1 <0>       0.2300
   23 N23      -6.2808     0.7534    -3.4663 N.pl3  1 <0>      -0.4700
   24 C24      -5.9470     1.0952    -4.8512 C.3    1 <0>       0.1300
   25 C25      -6.6198     0.0998    -5.7986 C.3    1 <0>      -0.1600
   26 C26      -6.4426     2.5091    -5.1612 C.3    1 <0>      -0.1600
   27 C27      -5.3919     0.4251    -2.4743 C.ar   1 <0>       0.3500
   28 N28      -4.0694     0.3130    -2.4007 N.ar   1 <0>      -0.6200
   29 H29       1.0039     1.9031     0.0027 H      1 <0>       0.0600
   30 H30      -0.5459     1.8868    -0.8726 H      1 <0>       0.0600
   31 H31      -0.5289     1.8773     0.9072 H      1 <0>       0.0500
   32 H32       0.5123    -0.3556    -0.8948 H      1 <0>       0.0800
   33 H33       0.5293    -0.3651     0.8851 H      1 <0>       0.0800
   34 H34      -0.9936    -2.3437     1.0951 H      1 <0>       0.0500
   35 H35      -2.4301    -2.4431     0.0488 H      1 <0>       0.0500
   36 H36      -0.5540    -3.5721    -0.9058 H      1 <0>       0.3800
   37 H37      -1.5839     0.0285    -2.0291 H      1 <0>       0.4100
   38 H38      -7.1807    -0.3662     1.0170 H      1 <0>       0.4200
   39 H39      -4.9459    -1.7339     2.0715 H      1 <0>       0.0800
   40 H40      -4.8185    -0.0175     2.5254 H      1 <0>       0.0800
   41 H41      -6.1849     0.8901     4.2239 H      1 <0>       0.1300
   42 H42      -7.8132     0.5334     6.0350 H      1 <0>       0.1300
   43 H43      -9.0495    -1.5895     6.1828 H      1 <0>       0.1300
   44 H44      -8.6597    -3.3613     4.5190 H      1 <0>       0.1300
   45 H45      -7.5660    -3.1541     1.7365 H      1 <0>       0.3900
   46 H46      -8.4474     0.9124    -3.4615 H      1 <0>       0.2100
   47 H47      -4.8662     1.0514    -4.9859 H      1 <0>       0.1100
   48 H48      -6.3714     0.3541    -6.8290 H      1 <0>       0.0800
   49 H49      -6.2667    -0.9075    -5.5778 H      1 <0>       0.0600
   50 H50      -7.7005     0.1437    -5.6639 H      1 <0>       0.0700
   51 H51      -5.9633     3.2183    -4.4863 H      1 <0>       0.0600
   52 H52      -6.1943     2.7634    -6.1916 H      1 <0>       0.0800
   53 H53      -7.5234     2.5530    -5.0266 H      1 <0>       0.0700
@<TRIPOS>BOND
   1    1    2 1
   2    1   29 1
   3    1   30 1
   4    1   31 1
   5    2    3 1
   6    2   32 1
   7    2   33 1
   8    3    4 1
   9    3    5 1
  10    3    7 1
  11    5    6 1
  12    5   34 1
  13    5   35 1
  14    6   36 1
  15    7    8 1
  16    7   37 1
  17    8   28 ar
  18    8    9 ar
  19    9   10 ar
  20   10   11 1
  21   10   20 ar
  22   11   12 1
  23   11   38 1
  24   12   13 1
  25   12   39 1
  26   12   40 1
  27   13   18 ar
  28   13   14 ar
  29   14   15 ar
  30   14   41 1
  31   15   16 ar
  32   15   42 1
  33   16   17 ar
  34   16   43 1
  35   17   18 ar
  36   17   44 1
  37   18   19 1
  38   19   45 1
  39   20   27 ar
  40   20   21 1
  41   21   22 2
  42   22   23 1
  43   22   46 1
  44   23   24 1
  45   23   27 1
  46   24   25 1
  47   24   26 1
  48   24   47 1
  49   25   48 1
  50   25   49 1
  51   25   50 1
  52   26   51 1
  53   26   52 1
  54   26   53 1
  55   27   28 ar
