@<TRIPOS>MOLECULE
ZINC000020153554
68    70    1     0     0
SMALL
USER_CHARGES
@<TRIPOS>ATOM
1      C1      3.2457    0.9031   -1.4562 C.3      1 ZINC000020153554   -0.1900
2      C2      3.2096   -0.5703   -1.0455 C.3      1 ZINC000020153554   -0.0200
3      N3      1.9488   -0.8531   -0.3467 N.4      1 ZINC000020153554   -0.3800
4      H4      1.8441   -0.2165    0.4291 H        1 ZINC000020153554    0.4300
5      C5      0.8244   -0.6811   -1.2764 C.3      1 ZINC000020153554   -0.0200
6      C6     -0.4939   -0.7830   -0.5067 C.3      1 ZINC000020153554   -0.1900
7      C7      1.9647   -2.2347    0.1522 C.3      1 ZINC000020153554   -0.0300
8      C8      3.1055   -2.4005    1.1582 C.3      1 ZINC000020153554    0.1000
9      N9      3.0424   -3.7383    1.7519 N.am     1 ZINC000020153554   -0.6900
10     C10     3.9543   -4.1110    2.6718 C.2      1 ZINC000020153554    0.5500
11     S11     5.1862   -3.0210    3.1464 S.2      1 ZINC000020153554   -0.5800
12     N12     3.8963   -5.3417    3.2180 N.am     1 ZINC000020153554   -0.6200
13     C13     4.7737   -5.6910    4.2509 C.ar     1 ZINC000020153554    0.1300
14     C14     5.0571   -4.7674    5.2622 C.ar     1 ZINC000020153554   -0.0500
15     C15     5.9060   -5.0803    6.2779 C.ar     1 ZINC000020153554   -0.0900
16     C16     6.5128   -6.3471    6.3218 C.ar     1 ZINC000020153554    0.1700
17     N17     7.3508   -6.6727    7.3136 N.ar     1 ZINC000020153554   -0.5100
18     C18     7.9237   -7.8572    7.3634 C.ar     1 ZINC000020153554    0.3400
19     N19     8.7854   -8.1494    8.4111 N.3      1 ZINC000020153554   -0.4800
20     C20     8.3496   -9.3544    9.1310 C.3      1 ZINC000020153554    0.0300
21     C21     9.3562   -9.6756   10.2380 C.3      1 ZINC000020153554    0.0000
22     N22     9.4470   -8.5379   11.1626 N.4      1 ZINC000020153554   -0.3900
23     H23     8.5387   -8.3567   11.5629 H        1 ZINC000020153554    0.4200
24     C24    10.4002   -8.8537   12.2349 C.3      1 ZINC000020153554   -0.0100
25     C25    10.4024   -7.7222   13.2647 C.3      1 ZINC000020153554   -0.1900
26     C26     9.9069   -7.3482   10.4342 C.3      1 ZINC000020153554   -0.0100
27     C27     8.9049   -7.0077    9.3289 C.3      1 ZINC000020153554    0.0400
28     C28     7.6834   -8.8306    6.3829 C.ar     1 ZINC000020153554   -0.1800
29     C29     6.8399   -8.5578    5.3487 C.ar     1 ZINC000020153554    0.0100
30     C30     6.5658   -9.5874    4.2829 C.3      1 ZINC000020153554   -0.1300
31     C31     6.2296   -7.2871    5.3008 C.ar     1 ZINC000020153554   -0.1100
32     C32     5.3470   -6.9442    4.2661 C.ar     1 ZINC000020153554   -0.0900
33     H33     3.1744    1.5300   -0.5673 H        1 ZINC000020153554    0.0800
34     H34     4.1812    1.1130   -1.9747 H        1 ZINC000020153554    0.1100
35     H35     2.4071    1.1161   -2.1192 H        1 ZINC000020153554    0.0800
36     H36     3.2809   -1.1971   -1.9344 H        1 ZINC000020153554    0.1300
37     H37     4.0481   -0.7833   -0.3825 H        1 ZINC000020153554    0.1400
38     H38     0.8927    0.2971   -1.7522 H        1 ZINC000020153554    0.1400
39     H39     0.8611   -1.4593   -2.0388 H        1 ZINC000020153554    0.1300
40     H40    -1.3285   -0.6883   -1.2014 H        1 ZINC000020153554    0.1100
41     H41    -0.5474   -1.7486   -0.0039 H        1 ZINC000020153554    0.0800
42     H42    -0.5451    0.0154    0.2336 H        1 ZINC000020153554    0.0800
43     H43     1.0153   -2.4558    0.6399 H        1 ZINC000020153554    0.1400
44     H44     2.1132   -2.9205   -0.6818 H        1 ZINC000020153554    0.1400
45     H45     4.0606   -2.2738    0.6485 H        1 ZINC000020153554    0.1100
46     H46     3.0100   -1.6499    1.9428 H        1 ZINC000020153554    0.1100
47     H47     2.3444   -4.3558    1.4830 H        1 ZINC000020153554    0.4100
48     H48     3.2464   -5.9854    2.8952 H        1 ZINC000020153554    0.4100
49     H49     4.5954   -3.7914    5.2361 H        1 ZINC000020153554    0.1500
50     H50     6.1140   -4.3549    7.0506 H        1 ZINC000020153554    0.1400
51     H51     7.3680   -9.1798    9.5715 H        1 ZINC000020153554    0.0700
52     H52     8.2931  -10.1925    8.4365 H        1 ZINC000020153554    0.1300
53     H53     9.0274  -10.5608   10.7823 H        1 ZINC000020153554    0.1400
54     H54    10.3346   -9.8635    9.7959 H        1 ZINC000020153554    0.1400
55     H55    10.1068   -9.7851   12.7191 H        1 ZINC000020153554    0.1300
56     H56    11.3991   -8.9626   11.8126 H        1 ZINC000020153554    0.1300
57     H57    11.1097   -7.9565   14.0604 H        1 ZINC000020153554    0.1100
58     H58    10.6958   -6.7907   12.7805 H        1 ZINC000020153554    0.0800
59     H59     9.4035   -7.6132   13.6870 H        1 ZINC000020153554    0.0800
60     H60     9.9864   -6.5080   11.1240 H        1 ZINC000020153554    0.1400
61     H61    10.8825   -7.5481    9.9911 H        1 ZINC000020153554    0.1400
62     H62     9.2535   -6.1337    8.7786 H        1 ZINC000020153554    0.1300
63     H63     7.9324   -6.7944    9.7726 H        1 ZINC000020153554    0.0800
64     H64     8.1664   -9.7944    6.4474 H        1 ZINC000020153554    0.1400
65     H65     5.7092  -10.1945    4.5759 H        1 ZINC000020153554    0.0900
66     H66     6.3496   -9.0854    3.3398 H        1 ZINC000020153554    0.0800
67     H67     7.4401  -10.2269    4.1620 H        1 ZINC000020153554    0.0800
68     H68     5.1215   -7.6554    3.4852 H        1 ZINC000020153554    0.1400
@<TRIPOS>BOND
1     1     2     1
2     1     33    1
3     1     34    1
4     1     35    1
5     2     3     1
6     2     36    1
7     2     37    1
8     3     4     1
9     3     5     1
10    3     7     1
11    5     6     1
12    5     38    1
13    5     39    1
14    6     40    1
15    6     41    1
16    6     42    1
17    7     8     1
18    7     43    1
19    7     44    1
20    8     9     1
21    8     45    1
22    8     46    1
23    9     10    am
24    9     47    1
25    10    11    2
26    10    12    am
27    12    13    1
28    12    48    1
29    13    32    ar
30    13    14    ar
31    14    15    ar
32    14    49    1
33    15    16    ar
34    15    50    1
35    16    31    ar
36    16    17    ar
37    17    18    ar
38    18    19    1
39    18    28    ar
40    19    27    1
41    19    20    1
42    20    21    1
43    20    51    1
44    20    52    1
45    21    22    1
46    21    53    1
47    21    54    1
48    22    23    1
49    22    24    1
50    22    26    1
51    24    25    1
52    24    55    1
53    24    56    1
54    25    57    1
55    25    58    1
56    25    59    1
57    26    27    1
58    26    60    1
59    26    61    1
60    27    62    1
61    27    63    1
62    28    29    ar
63    28    64    1
64    29    30    1
65    29    31    ar
66    30    65    1
67    30    66    1
68    30    67    1
69    31    32    ar
70    32    68    1
@<TRIPOS>SUBSTRUCTURE
1   ZINC000020153554 1     RESIDUE    1   A     ZIN   1
