@<TRIPOS>MOLECULE
ZINC000098209627
68    71    1     0     0
SMALL
USER_CHARGES
@<TRIPOS>ATOM
1      C1      0.9107    0.1015    1.9348 C.3      1 ZINC000098209627   -0.1700
2      C2      2.1898    0.9408    1.9149 C.3      1 ZINC000098209627    0.1700
3      C3      1.8714    2.3666    2.3696 C.3      1 ZINC000098209627   -0.1600
4      C4      3.2206    0.3220    2.8612 C.3      1 ZINC000098209627   -0.1500
5      N5      2.7324    0.9718    0.5545 N.am     1 ZINC000098209627   -0.7300
6      C6      1.9951    1.4781   -0.4538 C.2      1 ZINC000098209627    0.5100
7      O7      0.8463    1.8127   -0.2562 O.2      1 ZINC000098209627   -0.5100
8      C8      2.5983    1.6284   -1.8266 C.3      1 ZINC000098209627    0.2300
9      H9      3.6526    1.3537   -1.7923 H        1 ZINC000098209627    0.0900
10     C10     1.8756    0.7271   -2.7943 C.2      1 ZINC000098209627   -0.2000
11     C11     1.9154    0.8110   -4.1524 C.2      1 ZINC000098209627    0.0900
12     C12     2.6746    1.8011   -4.9213 C.2      1 ZINC000098209627    0.5300
13     O13     2.0999    2.5229   -5.7261 O.co2    1 ZINC000098209627   -0.6600
14     O14     3.8836    1.9065   -4.7588 O.co2    1 ZINC000098209627   -0.6400
15     N15     1.1247   -0.1885   -4.6903 N.pl3    1 ZINC000098209627   -0.5600
16     C16     0.5746   -0.9178   -3.6635 C.ar     1 ZINC000098209627    0.0900
17     C17    -0.2808   -2.0150   -3.6276 C.ar     1 ZINC000098209627   -0.1100
18     C18    -0.6688   -2.5418   -2.4145 C.ar     1 ZINC000098209627   -0.0300
19     Cl19   -1.7356   -3.9107   -2.3733 Cl       1 ZINC000098209627   -0.0800
20     C20    -0.2135   -1.9875   -1.2233 C.ar     1 ZINC000098209627   -0.1400
21     C21     0.6256   -0.9120   -1.2336 C.ar     1 ZINC000098209627   -0.0700
22     C22     1.0390   -0.3616   -2.4544 C.ar     1 ZINC000098209627   -0.0700
23     N23     2.4703    3.0199   -2.2665 N.am     1 ZINC000098209627   -0.6000
24     C24     1.7074    3.3211   -3.3360 C.2      1 ZINC000098209627    0.5100
25     O25     1.6779    4.4572   -3.7593 O.2      1 ZINC000098209627   -0.5400
26     C26     3.1714    4.0841   -1.5439 C.3      1 ZINC000098209627    0.1600
27     C27     4.5384    4.2839   -2.1462 C.ar     1 ZINC000098209627   -0.1300
28     C28     5.6152    3.5596   -1.6692 C.ar     1 ZINC000098209627   -0.0600
29     C29     6.8693    3.7410   -2.2195 C.ar     1 ZINC000098209627   -0.1500
30     C30     7.0475    4.6503   -3.2520 C.ar     1 ZINC000098209627    0.1300
31     O31     8.2801    4.8302   -3.7954 O.3      1 ZINC000098209627   -0.3100
32     C32     8.3893    5.7828   -4.8549 C.3      1 ZINC000098209627    0.1000
33     C33     9.8187    5.8461   -5.3282 C.ar     1 ZINC000098209627   -0.0800
34     C34    10.7017    6.7339   -4.7424 C.ar     1 ZINC000098209627   -0.0800
35     C35    12.0128    6.7924   -5.1760 C.ar     1 ZINC000098209627   -0.1200
36     C36    12.4413    5.9623   -6.1966 C.ar     1 ZINC000098209627   -0.0300
37     Cl37   14.0880    6.0348   -6.7413 Cl       1 ZINC000098209627   -0.0700
38     C38    11.5570    5.0740   -6.7824 C.ar     1 ZINC000098209627   -0.1100
39     C39    10.2477    5.0125   -6.3441 C.ar     1 ZINC000098209627   -0.0800
40     C40     5.9653    5.3755   -3.7291 C.ar     1 ZINC000098209627   -0.2000
41     C41     4.7124    5.1870   -3.1786 C.ar     1 ZINC000098209627   -0.0400
42     H42     0.1763    0.5424    1.2606 H        1 ZINC000098209627    0.0900
43     H43     1.1375   -0.9142    1.6109 H        1 ZINC000098209627    0.0600
44     H44     0.5069    0.0785    2.9470 H        1 ZINC000098209627    0.0600
45     H45     1.4676    2.3435    3.3818 H        1 ZINC000098209627    0.0600
46     H46     2.7826    2.9645    2.3554 H        1 ZINC000098209627    0.0500
47     H47     1.1370    2.8075    1.6954 H        1 ZINC000098209627    0.0800
48     H48     3.4474   -0.6938    2.5373 H        1 ZINC000098209627    0.0600
49     H49     4.1318    0.9199    2.8470 H        1 ZINC000098209627    0.0600
50     H50     2.8168    0.2989    3.8734 H        1 ZINC000098209627    0.0700
51     H51     3.6224    0.6280    0.3793 H        1 ZINC000098209627    0.4000
52     H52     0.9818   -0.3482   -5.6364 H        1 ZINC000098209627    0.4200
53     H53    -0.6399   -2.4521   -4.5476 H        1 ZINC000098209627    0.1300
54     H54    -0.5274   -2.4121   -0.2812 H        1 ZINC000098209627    0.1300
55     H55     0.9739   -0.4884   -0.3033 H        1 ZINC000098209627    0.1400
56     H56     1.1224    2.5506   -3.8162 H        1 ZINC000098209627    0.1400
57     H57     2.6022    5.0106   -1.6194 H        1 ZINC000098209627    0.0900
58     H58     3.2737    3.8048   -0.4953 H        1 ZINC000098209627    0.0700
59     H59     5.4760    2.8518   -0.8654 H        1 ZINC000098209627    0.1200
60     H60     7.7103    3.1755   -1.8461 H        1 ZINC000098209627    0.1200
61     H61     7.7458    5.4820   -5.6817 H        1 ZINC000098209627    0.0800
62     H62     8.0822    6.7644   -4.4940 H        1 ZINC000098209627    0.0700
63     H63    10.3670    7.3821   -3.9460 H        1 ZINC000098209627    0.1300
64     H64    12.7025    7.4862   -4.7186 H        1 ZINC000098209627    0.1400
65     H65    11.8909    4.4260   -7.5793 H        1 ZINC000098209627    0.1400
66     H66     9.5574    4.3189   -6.8011 H        1 ZINC000098209627    0.1400
67     H67     6.1016    6.0842   -4.5325 H        1 ZINC000098209627    0.1200
68     H68     3.8695    5.7509   -3.5499 H        1 ZINC000098209627    0.1300
@<TRIPOS>BOND
1     1     2     1
2     1     42    1
3     1     43    1
4     1     44    1
5     2     3     1
6     2     4     1
7     2     5     1
8     3     45    1
9     3     46    1
10    3     47    1
11    4     48    1
12    4     49    1
13    4     50    1
14    5     6     am
15    5     51    1
16    6     7     2
17    6     8     1
18    8     9     1
19    8     10    1
20    8     23    1
21    10    22    1
22    10    11    2
23    11    12    1
24    11    15    1
25    12    13    ar
26    12    14    ar
27    15    16    1
28    15    52    1
29    16    22    ar
30    16    17    ar
31    17    18    ar
32    17    53    1
33    18    19    1
34    18    20    ar
35    20    21    ar
36    20    54    1
37    21    22    ar
38    21    55    1
39    23    24    am
40    23    26    1
41    24    25    2
42    24    56    1
43    26    27    1
44    26    57    1
45    26    58    1
46    27    41    ar
47    27    28    ar
48    28    29    ar
49    28    59    1
50    29    30    ar
51    29    60    1
52    30    31    1
53    30    40    ar
54    31    32    1
55    32    33    1
56    32    61    1
57    32    62    1
58    33    39    ar
59    33    34    ar
60    34    35    ar
61    34    63    1
62    35    36    ar
63    35    64    1
64    36    37    1
65    36    38    ar
66    38    39    ar
67    38    65    1
68    39    66    1
69    40    41    ar
70    40    67    1
71    41    68    1
@<TRIPOS>SUBSTRUCTURE
1   ZINC000098209627 1     RESIDUE    1   A     ZIN   1
