@<TRIPOS>MOLECULE
ZINC000002553997
19    20    1     0     0
SMALL
USER_CHARGES
@<TRIPOS>ATOM
1      N1     -0.0166    1.3758    0.0096 N.pl3    1 ZINC000002553997   -0.8100
2      C2      0.0021   -0.0041    0.0020 C.2      1 ZINC000002553997    0.3900
3      N3     -1.0461   -0.7542    0.0028 N.2      1 ZINC000002553997   -0.5500
4      C4     -0.8652   -2.0902   -0.0057 C.ar     1 ZINC000002553997    0.1300
5      C5     -1.8370   -3.1126   -0.0061 C.ar     1 ZINC000002553997   -0.0300
6      C6     -1.4583   -4.4317   -0.0148 C.ar     1 ZINC000002553997   -0.1600
7      C7     -2.5105   -5.5106   -0.0151 C.3      1 ZINC000002553997    0.5100
8      F8     -2.8427   -5.8376   -1.3341 F        1 ZINC000002553997   -0.1700
9      F9     -2.0150   -6.6453    0.6361 F        1 ZINC000002553997   -0.1700
10     F10    -3.6505   -5.0503    0.6525 F        1 ZINC000002553997   -0.1700
11     C11    -0.1163   -4.7807   -0.0238 C.ar     1 ZINC000002553997   -0.0800
12     C12     0.8503   -3.7991   -0.0236 C.ar     1 ZINC000002553997   -0.0500
13     C13     0.4843   -2.4559   -0.0144 C.ar     1 ZINC000002553997   -0.1700
14     S14     1.4588   -0.9880   -0.0178 S.3      1 ZINC000002553997    0.0600
15     H15     0.8167    1.8722    0.0043 H        1 ZINC000002553997    0.4200
16     H16    -0.8632    1.8493    0.0162 H        1 ZINC000002553997    0.4200
17     H17    -2.8860   -2.8556    0.0008 H        1 ZINC000002553997    0.1500
18     H18     0.1711   -5.8217   -0.0306 H        1 ZINC000002553997    0.1500
19     H19     1.8951   -4.0723   -0.0307 H        1 ZINC000002553997    0.1400
@<TRIPOS>BOND
1     1     2     1
2     1     15    1
3     1     16    1
4     2     14    1
5     2     3     2
6     3     4     1
7     4     13    ar
8     4     5     ar
9     5     6     ar
10    5     17    1
11    6     7     1
12    6     11    ar
13    7     8     1
14    7     9     1
15    7     10    1
16    11    12    ar
17    11    18    1
18    12    13    ar
19    12    19    1
20    13    14    1
@<TRIPOS>SUBSTRUCTURE
1   ZINC000002553997 1     RESIDUE    1   A     ZIN   1
