@<TRIPOS>MOLECULE
ZINC000001791925
40    43    1     0     0
SMALL
USER_CHARGES
@<TRIPOS>ATOM
1      Br1     0.0406   -0.0009   -0.0777 Br       1 ZINC000001791925   -0.0500
2      C2      0.0130    1.8896   -0.0475 C.ar     1 ZINC000001791925   -0.1100
3      C3      0.8401    2.5784    0.8221 C.ar     1 ZINC000001791925   -0.0700
4      C4      0.8221    3.9591    0.8464 C.ar     1 ZINC000001791925   -0.1100
5      C5     -0.0273    4.6564   -0.0033 C.ar     1 ZINC000001791925    0.1800
6      N6     -0.0474    6.0538    0.0187 N.pl3    1 ZINC000001791925   -0.6500
7      C7      1.1162    6.7601    0.2866 C.ar     1 ZINC000001791925    0.3500
8      C8      1.0699    8.1686    0.4158 C.ar     1 ZINC000001791925    0.3500
9      N9     -0.1388    8.8346    0.2743 N.pl3    1 ZINC000001791925   -0.6500
10     C10    -0.1727   10.2319    0.2878 C.ar     1 ZINC000001791925    0.1800
11     C11     0.8885   10.9589   -0.2367 C.ar     1 ZINC000001791925   -0.1100
12     C12     0.8520   12.3393   -0.2224 C.ar     1 ZINC000001791925   -0.0700
13     C13    -0.2402   12.9983    0.3136 C.ar     1 ZINC000001791925   -0.1100
14     Br14   -0.2867   14.8887    0.3307 Br       1 ZINC000001791925   -0.0500
15     C15    -1.2988   12.2769    0.8367 C.ar     1 ZINC000001791925   -0.0700
16     C16    -1.2702   10.8963    0.8204 C.ar     1 ZINC000001791925   -0.1500
17     N17     2.1674    8.8512    0.6701 N.ar     1 ZINC000001791925   -0.4600
18     C18     3.3357    8.2074    0.8074 C.ar     1 ZINC000001791925    0.0900
19     C19     4.5192    8.9125    1.0792 C.ar     1 ZINC000001791925   -0.0800
20     C20     5.6935    8.2357    1.2147 C.ar     1 ZINC000001791925   -0.1000
21     C21     5.7390    6.8499    1.0874 C.ar     1 ZINC000001791925   -0.1000
22     C22     4.6105    6.1342    0.8235 C.ar     1 ZINC000001791925   -0.0800
23     C23     3.3820    6.7984    0.6781 C.ar     1 ZINC000001791925    0.0900
24     N24     2.2564    6.1151    0.4244 N.ar     1 ZINC000001791925   -0.4600
25     C25    -0.8565    3.9621   -0.8752 C.ar     1 ZINC000001791925   -0.1500
26     C26    -0.8300    2.5816   -0.8990 C.ar     1 ZINC000001791925   -0.0700
27     H27     1.5000    2.0358    1.4827 H        1 ZINC000001791925    0.1400
28     H28     1.4676    4.4962    1.5256 H        1 ZINC000001791925    0.1400
29     H29    -0.8749    6.5298   -0.1533 H        1 ZINC000001791925    0.4200
30     H30    -0.9604    8.3305    0.1659 H        1 ZINC000001791925    0.4200
31     H31     1.7415   10.4450   -0.6548 H        1 ZINC000001791925    0.1400
32     H32     1.6769   12.9050   -0.6296 H        1 ZINC000001791925    0.1400
33     H33    -2.1500   12.7940    1.2544 H        1 ZINC000001791925    0.1400
34     H34    -2.0967   10.3337    1.2289 H        1 ZINC000001791925    0.1300
35     H35     4.4985    9.9876    1.1801 H        1 ZINC000001791925    0.1400
36     H36     6.6018    8.7815    1.4233 H        1 ZINC000001791925    0.1300
37     H37     6.6821    6.3355    1.1990 H        1 ZINC000001791925    0.1300
38     H38     4.6603    5.0596    0.7273 H        1 ZINC000001791925    0.1400
39     H39    -1.5182    4.5015   -1.5366 H        1 ZINC000001791925    0.1300
40     H40    -1.4744    2.0412   -1.5766 H        1 ZINC000001791925    0.1400
@<TRIPOS>BOND
1     1     2     1
2     2     26    ar
3     2     3     ar
4     3     4     ar
5     3     27    1
6     4     5     ar
7     4     28    1
8     5     6     1
9     5     25    ar
10    6     7     1
11    6     29    1
12    7     24    ar
13    7     8     ar
14    8     9     1
15    8     17    ar
16    9     10    1
17    9     30    1
18    10    16    ar
19    10    11    ar
20    11    12    ar
21    11    31    1
22    12    13    ar
23    12    32    1
24    13    14    1
25    13    15    ar
26    15    16    ar
27    15    33    1
28    16    34    1
29    17    18    ar
30    18    23    ar
31    18    19    ar
32    19    20    ar
33    19    35    1
34    20    21    ar
35    20    36    1
36    21    22    ar
37    21    37    1
38    22    23    ar
39    22    38    1
40    23    24    ar
41    25    26    ar
42    25    39    1
43    26    40    1
@<TRIPOS>SUBSTRUCTURE
1   ZINC000001791925 1     RESIDUE    1   A     ZIN   1
