@<TRIPOS>MOLECULE
ZINC000028826933
50    54    1     0     0
SMALL
USER_CHARGES
@<TRIPOS>ATOM
1      C1     -0.0184    1.5028    0.0103 C.3      1 ZINC000028826933   -0.1700
2      C2      0.0021   -0.0041    0.0020 C.2      1 ZINC000028826933    0.5000
3      O3      1.0607   -0.5962   -0.0113 O.2      1 ZINC000028826933   -0.5100
4      N4     -1.1558   -0.6938    0.0094 N.am     1 ZINC000028826933   -0.6300
5      C5     -1.1369   -2.0881    0.0017 C.2      1 ZINC000028826933    0.0400
6      C6     -2.2268   -2.8749    0.0025 C.2      1 ZINC000028826933   -0.1900
7      C7     -1.9686   -4.2281   -0.0060 C.2      1 ZINC000028826933   -0.0100
8      C8     -3.0608   -5.2665   -0.0073 C.3      1 ZINC000028826933   -0.1100
9      C9     -0.6458   -4.5505   -0.0140 C.2      1 ZINC000028826933   -0.2200
10     C10    -0.1055   -5.9172   -0.0244 C.2      1 ZINC000028826933    0.3400
11     N11    -0.8024   -7.0399   -0.0334 N.2      1 ZINC000028826933   -0.2700
12     N12    -0.0075   -8.0569   -0.0387 N.2      1 ZINC000028826933   -0.2200
13     C13     1.2246   -7.6513   -0.0315 C.2      1 ZINC000028826933    0.1100
14     S14     2.7317   -8.5676   -0.0234 S.3      1 ZINC000028826933    0.0800
15     C15     3.7756   -7.3612   -0.8876 C.3      1 ZINC000028826933   -0.0600
16     C16     3.4708   -7.4078   -2.3628 C.ar     1 ZINC000028826933   -0.0900
17     C17     2.1946   -7.1275   -2.8140 C.ar     1 ZINC000028826933   -0.1100
18     C18     1.9150   -7.1703   -4.1671 C.ar     1 ZINC000028826933   -0.1100
19     C19     2.9117   -7.4929   -5.0690 C.ar     1 ZINC000028826933   -0.1000
20     C20     4.1882   -7.7723   -4.6178 C.ar     1 ZINC000028826933   -0.1100
21     C21     4.4688   -7.7254   -3.2650 C.ar     1 ZINC000028826933   -0.0900
22     C22     3.5210   -5.9747   -0.3741 C.2      1 ZINC000028826933    0.2300
23     C23     4.6836   -5.0748   -0.2574 C.ar     1 ZINC000028826933   -0.0700
24     C24     5.9558   -5.5209   -0.6229 C.ar     1 ZINC000028826933   -0.0800
25     C25     7.0386   -4.6738   -0.5110 C.ar     1 ZINC000028826933   -0.1200
26     C26     6.8668   -3.3848   -0.0380 C.ar     1 ZINC000028826933   -0.0900
27     C27     5.6094   -2.9361    0.3259 C.ar     1 ZINC000028826933   -0.1200
28     C28     4.5167   -3.7704    0.2139 C.ar     1 ZINC000028826933   -0.0600
29     N29     2.3759   -5.5041   -0.0267 N.2      1 ZINC000028826933   -0.2500
30     N30     1.2153   -6.2717   -0.0325 N.pl3    1 ZINC000028826933   -0.3400
31     S31     0.3159   -3.0781   -0.0181 S.3      1 ZINC000028826933    0.2900
32     H32     1.0042    1.8801    0.0026 H        1 ZINC000028826933    0.1000
33     H33    -0.5455    1.8639   -0.8728 H        1 ZINC000028826933    0.1000
34     H34    -0.5286    1.8543    0.9071 H        1 ZINC000028826933    0.1000
35     H35    -2.0023   -0.2203    0.0200 H        1 ZINC000028826933    0.4200
36     H36    -3.2303   -2.4759    0.0097 H        1 ZINC000028826933    0.1500
37     H37    -3.3286   -5.5108   -1.0353 H        1 ZINC000028826933    0.0800
38     H38    -2.7087   -6.1648    0.4997 H        1 ZINC000028826933    0.0900
39     H39    -3.9351   -4.8748    0.5126 H        1 ZINC000028826933    0.0700
40     H40     4.8238   -7.6150   -0.7296 H        1 ZINC000028826933    0.1600
41     H41     1.4159   -6.8755   -2.1094 H        1 ZINC000028826933    0.1100
42     H42     0.9178   -6.9520   -4.5197 H        1 ZINC000028826933    0.1300
43     H43     2.6931   -7.5270   -6.1261 H        1 ZINC000028826933    0.1300
44     H44     4.9668   -8.0247   -5.3224 H        1 ZINC000028826933    0.1300
45     H45     5.4660   -7.9436   -2.9125 H        1 ZINC000028826933    0.1300
46     H46     6.0914   -6.5268   -0.9919 H        1 ZINC000028826933    0.1300
47     H47     8.0229   -5.0174   -0.7929 H        1 ZINC000028826933    0.1300
48     H48     7.7182   -2.7259    0.0479 H        1 ZINC000028826933    0.1300
49     H49     5.4826   -1.9289    0.6943 H        1 ZINC000028826933    0.1300
50     H50     3.5359   -3.4190    0.4983 H        1 ZINC000028826933    0.1400
@<TRIPOS>BOND
1     1     2     1
2     1     32    1
3     1     33    1
4     1     34    1
5     2     3     2
6     2     4     am
7     4     5     1
8     4     35    1
9     5     31    1
10    5     6     2
11    6     7     1
12    6     36    1
13    7     8     1
14    7     9     2
15    8     37    1
16    8     38    1
17    8     39    1
18    9     10    1
19    9     31    1
20    10    30    1
21    10    11    2
22    11    12    1
23    12    13    2
24    13    30    1
25    13    14    1
26    14    15    1
27    15    16    1
28    15    22    1
29    15    40    1
30    16    21    ar
31    16    17    ar
32    17    18    ar
33    17    41    1
34    18    19    ar
35    18    42    1
36    19    20    ar
37    19    43    1
38    20    21    ar
39    20    44    1
40    21    45    1
41    22    23    1
42    22    29    2
43    23    28    ar
44    23    24    ar
45    24    25    ar
46    24    46    1
47    25    26    ar
48    25    47    1
49    26    27    ar
50    26    48    1
51    27    28    ar
52    27    49    1
53    28    50    1
54    29    30    1
@<TRIPOS>SUBSTRUCTURE
1   ZINC000028826933 1     RESIDUE    1   A     ZIN   1
