@<TRIPOS>MOLECULE
ZINC000014692413
72    74    1     0     0
SMALL
USER_CHARGES
@<TRIPOS>ATOM
1      C1     -0.1447    1.8992   -0.1074 C.3      1 ZINC000014692413   -0.1300
2      C2      0.0786    0.4122   -0.2072 C.2      1 ZINC000014692413   -0.0600
3      C3     -0.9616   -0.4181   -0.2115 C.2      1 ZINC000014692413   -0.1700
4      C4     -0.7383   -1.9051   -0.3113 C.3      1 ZINC000014692413   -0.1100
5      C5     -2.3277    0.1152   -0.1190 C.2      1 ZINC000014692413    0.5100
6      O6     -2.5077    1.3146   -0.0385 O.2      1 ZINC000014692413   -0.4800
7      O7     -3.3810   -0.7256   -0.1234 O.3      1 ZINC000014692413   -0.2800
8      C8     -4.6172   -0.1668   -0.0351 C.ar     1 ZINC000014692413    0.1400
9      C9     -5.2030    0.0559    1.2092 C.ar     1 ZINC000014692413    0.0400
10     O10    -4.5288   -0.2953    2.3377 O.3      1 ZINC000014692413   -0.3200
11     C11    -3.6766    0.6938    2.9187 C.3      1 ZINC000014692413    0.0300
12     C12    -6.4650    0.6315    1.3182 C.ar     1 ZINC000014692413    0.1400
13     O13    -7.0267    0.8148    2.5432 O.3      1 ZINC000014692413   -0.3000
14     C14    -8.3246    1.4115    2.5790 C.3      1 ZINC000014692413    0.0200
15     C15    -7.1551    1.0219    0.1652 C.ar     1 ZINC000014692413   -0.1800
16     C16    -6.5824    0.8203   -1.0271 C.ar     1 ZINC000014692413   -0.0200
17     C17    -5.3050    0.1923   -1.1773 C.ar     1 ZINC000014692413   -0.0700
18     C18    -4.9109   -0.0785   -2.5724 C.ar     1 ZINC000014692413   -0.1000
19     C19    -5.8246   -0.9040   -3.3010 C.ar     1 ZINC000014692413   -0.0100
20     C20    -5.6685   -1.1935   -4.5971 C.ar     1 ZINC000014692413   -0.1700
21     C21    -4.5370   -0.7058   -5.2618 C.ar     1 ZINC000014692413    0.1300
22     O22    -4.3483   -0.9839   -6.5795 O.3      1 ZINC000014692413   -0.3000
23     C23    -5.3450   -1.7798   -7.2238 C.3      1 ZINC000014692413    0.0200
24     C24    -3.6058    0.0635   -4.5715 C.ar     1 ZINC000014692413    0.0300
25     O25    -2.4981    0.5137   -5.2215 O.3      1 ZINC000014692413   -0.3200
26     C26    -1.3468   -0.3327   -5.2042 C.3      1 ZINC000014692413    0.0400
27     C27    -3.7863    0.3819   -3.2276 C.ar     1 ZINC000014692413    0.1400
28     O28    -2.8666    1.1367   -2.5693 O.3      1 ZINC000014692413   -0.3200
29     C29    -2.9873    2.5556   -2.6876 C.3      1 ZINC000014692413    0.0500
30     C30    -6.8574   -1.3943   -2.2827 C.3      1 ZINC000014692413   -0.1500
31     C31    -8.3009   -1.0153   -2.7177 C.3      1 ZINC000014692413    0.1400
32     C32    -9.3038   -1.5671   -1.7024 C.3      1 ZINC000014692413   -0.1800
33     O33    -8.5727   -1.5670   -4.0076 O.3      1 ZINC000014692413   -0.5500
34     C34    -8.4198    0.5678   -2.7769 C.3      1 ZINC000014692413   -0.0700
35     H35    -9.1629    0.9044   -2.0539 H        1 ZINC000014692413    0.0800
36     C36    -8.8444    0.9961   -4.1830 C.3      1 ZINC000014692413   -0.1300
37     C37    -7.0398    1.2020   -2.4357 C.3      1 ZINC000014692413   -0.1200
38     H38     0.8168    2.4125   -0.1188 H        1 ZINC000014692413    0.0600
39     H39    -0.7453    2.2340   -0.9531 H        1 ZINC000014692413    0.0900
40     H40    -0.6670    2.1267    0.8219 H        1 ZINC000014692413    0.0800
41     H41     1.0826    0.0202   -0.2752 H        1 ZINC000014692413    0.1300
42     H42    -0.6393   -2.3256    0.6894 H        1 ZINC000014692413    0.0700
43     H43    -1.5864   -2.3667   -0.8171 H        1 ZINC000014692413    0.0700
44     H44     0.1722   -2.0986   -0.8784 H        1 ZINC000014692413    0.0700
45     H45    -3.2008    0.2851    3.8101 H        1 ZINC000014692413    0.0900
46     H46    -2.9113    0.9825    2.1983 H        1 ZINC000014692413    0.0500
47     H47    -4.2678    1.5682    3.1909 H        1 ZINC000014692413    0.0500
48     H48    -8.2820    2.4016    2.1253 H        1 ZINC000014692413    0.0600
49     H49    -9.0266    0.7880    2.0253 H        1 ZINC000014692413    0.0600
50     H50    -8.6554    1.5000    3.6139 H        1 ZINC000014692413    0.1100
51     H51    -8.1319    1.4771    0.2363 H        1 ZINC000014692413    0.1500
52     H52    -6.3999   -1.7916   -5.1202 H        1 ZINC000014692413    0.1500
53     H53    -5.0732   -1.9264   -8.2691 H        1 ZINC000014692413    0.1000
54     H54    -5.4141   -2.7476   -6.7272 H        1 ZINC000014692413    0.0600
55     H55    -6.3081   -1.2724   -7.1665 H        1 ZINC000014692413    0.0600
56     H56    -1.5684   -1.2584   -5.7353 H        1 ZINC000014692413    0.0400
57     H57    -0.5148    0.1756   -5.6915 H        1 ZINC000014692413    0.0900
58     H58    -1.0792   -0.5609   -4.1725 H        1 ZINC000014692413    0.0500
59     H59    -2.2248    3.0374   -2.0756 H        1 ZINC000014692413    0.1000
60     H60    -2.8537    2.8460   -3.7297 H        1 ZINC000014692413    0.0500
61     H61    -3.9754    2.8658   -2.3478 H        1 ZINC000014692413    0.0400
62     H62    -6.7843   -2.4782   -2.1934 H        1 ZINC000014692413    0.0800
63     H63    -6.6461   -0.9422   -1.3137 H        1 ZINC000014692413    0.1200
64     H64    -9.0979   -1.1417   -0.7202 H        1 ZINC000014692413    0.0700
65     H65   -10.3152   -1.3004   -2.0091 H        1 ZINC000014692413    0.0700
66     H66    -9.2128   -2.6522   -1.6548 H        1 ZINC000014692413    0.0600
67     H67    -8.5085   -2.5312   -4.0445 H        1 ZINC000014692413    0.3700
68     H68    -9.8099    0.5504   -4.4225 H        1 ZINC000014692413    0.0600
69     H69    -8.9258    2.0823   -4.2230 H        1 ZINC000014692413    0.0500
70     H70    -8.1002    0.6606   -4.9053 H        1 ZINC000014692413    0.0600
71     H71    -7.1196    2.2868   -2.5062 H        1 ZINC000014692413    0.0800
72     H72    -6.3002    0.8535   -3.1566 H        1 ZINC000014692413    0.1200
@<TRIPOS>BOND
1     1     2     1
2     1     38    1
3     1     39    1
4     1     40    1
5     2     3     2
6     2     41    1
7     3     4     1
8     3     5     1
9     4     42    1
10    4     43    1
11    4     44    1
12    5     6     2
13    5     7     1
14    7     8     1
15    8     17    ar
16    8     9     ar
17    9     10    1
18    9     12    ar
19    10    11    1
20    11    45    1
21    11    46    1
22    11    47    1
23    12    13    1
24    12    15    ar
25    13    14    1
26    14    48    1
27    14    49    1
28    14    50    1
29    15    16    ar
30    15    51    1
31    16    37    1
32    16    17    ar
33    17    18    1
34    18    27    ar
35    18    19    ar
36    19    20    ar
37    19    30    1
38    20    21    ar
39    20    52    1
40    21    22    1
41    21    24    ar
42    22    23    1
43    23    53    1
44    23    54    1
45    23    55    1
46    24    25    1
47    24    27    ar
48    25    26    1
49    26    56    1
50    26    57    1
51    26    58    1
52    27    28    1
53    28    29    1
54    29    59    1
55    29    60    1
56    29    61    1
57    30    31    1
58    30    62    1
59    30    63    1
60    31    32    1
61    31    33    1
62    31    34    1
63    32    64    1
64    32    65    1
65    32    66    1
66    33    67    1
67    34    35    1
68    34    36    1
69    34    37    1
70    36    68    1
71    36    69    1
72    36    70    1
73    37    71    1
74    37    72    1
@<TRIPOS>SUBSTRUCTURE
1   ZINC000014692413 1     RESIDUE    1   A     ZIN   1
