@<TRIPOS>MOLECULE
ZINC000084605049
81    86    1     0     0
SMALL
USER_CHARGES
@<TRIPOS>ATOM
1      C1     -0.3741    1.3817   -0.4352 C.3      1 ZINC000084605049    0.0300
2      O2     -0.2038   -0.0344   -0.3476 O.3      1 ZINC000084605049   -0.3200
3      C3      0.5571   -0.6253   -1.3076 C.ar     1 ZINC000084605049    0.0900
4      C4      1.1288    0.1401   -2.3036 C.ar     1 ZINC000084605049   -0.1300
5      C5      1.9106   -0.4705   -3.2891 C.ar     1 ZINC000084605049   -0.1300
6      C6      2.5241    0.3440   -4.3556 C.2      1 ZINC000084605049    0.5700
7      O7      2.8839    1.4815   -4.1210 O.2      1 ZINC000084605049   -0.5200
8      N8      2.6857   -0.1730   -5.5897 N.am     1 ZINC000084605049   -0.6200
9      C9      2.1425   -1.4966   -5.9240 C.3      1 ZINC000084605049    0.0900
10     C10     1.2676   -1.3689   -7.1750 C.3      1 ZINC000084605049   -0.1600
11     C11     2.0814   -0.7216   -8.2979 C.3      1 ZINC000084605049    0.0300
12     N12     1.2557   -0.6279   -9.5093 N.4      1 ZINC000084605049   -0.3800
13     H13     0.4402   -0.0656   -9.3175 H        1 ZINC000084605049    0.4200
14     C14     0.8361   -1.9740   -9.9208 C.3      1 ZINC000084605049   -0.0100
15     C15    -0.0395   -1.8754  -11.1719 C.3      1 ZINC000084605049    0.0300
16     N16     0.7226   -1.2299  -12.2502 N.3      1 ZINC000084605049   -0.5400
17     C17    -0.0662   -1.1676  -13.4879 C.3      1 ZINC000084605049    0.0200
18     C18     1.1708    0.1093  -11.8432 C.3      1 ZINC000084605049    0.0300
19     C19     2.0366   -0.0060  -10.5868 C.3      1 ZINC000084605049   -0.0100
20     C20     2.5194    0.6808   -7.8696 C.3      1 ZINC000084605049   -0.1600
21     C21     3.4032    0.5790   -6.6282 C.3      1 ZINC000084605049    0.1200
22     C22     2.1102   -1.8530   -3.2621 C.ar     1 ZINC000084605049   -0.1100
23     C23     1.5371   -2.6127   -2.2661 C.ar     1 ZINC000084605049   -0.1000
24     C24     0.7650   -2.0059   -1.2825 C.ar     1 ZINC000084605049    0.1800
25     N25     0.1867   -2.7786   -0.2762 N.pl3    1 ZINC000084605049   -0.6200
26     C26    -0.0776   -4.1221   -0.4987 C.ar     1 ZINC000084605049    0.5700
27     N27     0.1210   -4.6272   -1.7056 N.ar     1 ZINC000084605049   -0.5400
28     C28    -0.1362   -5.9018   -1.9638 C.ar     1 ZINC000084605049    0.1800
29     C29    -0.6116   -6.7168   -0.9459 C.ar     1 ZINC000084605049   -0.0100
30     C30    -0.7810   -6.1575    0.3226 C.ar     1 ZINC000084605049    0.4600
31     N31    -0.5175   -4.8686    0.5044 N.ar     1 ZINC000084605049   -0.5500
32     N32    -1.1671   -6.9435    1.3995 N.pl3    1 ZINC000084605049   -0.6000
33     C33    -2.4144   -6.6625    2.1147 C.3      1 ZINC000084605049    0.1100
34     C34    -0.3532   -8.0022    1.7900 C.ar     1 ZINC000084605049    0.2000
35     C35     0.1860   -8.0239    3.0692 C.ar     1 ZINC000084605049   -0.1300
36     C36     1.0208   -9.0557    3.4507 C.ar     1 ZINC000084605049   -0.0700
37     C37     1.3277  -10.0715    2.5606 C.ar     1 ZINC000084605049   -0.1300
38     C38     0.7908  -10.0714    1.2914 C.ar     1 ZINC000084605049   -0.0400
39     C39    -0.0702   -9.0429    0.8958 C.ar     1 ZINC000084605049   -0.1500
40     C40    -0.6993   -9.0899   -0.4296 C.2      1 ZINC000084605049    0.5700
41     O41    -1.0397  -10.1811   -0.8440 O.2      1 ZINC000084605049   -0.5200
42     N42    -0.9290   -8.0472   -1.2134 N.am     1 ZINC000084605049   -0.5300
43     C43    -1.5844   -8.3210   -2.4947 C.3      1 ZINC000084605049    0.0600
44     H44     0.5993    1.8689   -0.3785 H        1 ZINC000084605049    0.0600
45     H45    -0.8512    1.6323   -1.3827 H        1 ZINC000084605049    0.0600
46     H46    -1.0003    1.7240    0.3887 H        1 ZINC000084605049    0.1100
47     H47     0.9724    1.2086   -2.3220 H        1 ZINC000084605049    0.1400
48     H48     2.9614   -2.1888   -6.1198 H        1 ZINC000084605049    0.0900
49     H49     1.5406   -1.8650   -5.0932 H        1 ZINC000084605049    0.1300
50     H50     0.9362   -2.3585   -7.4897 H        1 ZINC000084605049    0.1000
51     H51     0.3999   -0.7485   -6.9504 H        1 ZINC000084605049    0.0900
52     H52     2.9622   -1.3295   -8.5049 H        1 ZINC000084605049    0.1400
53     H53     1.7167   -2.5778  -10.1404 H        1 ZINC000084605049    0.1400
54     H54     0.2680   -2.4396   -9.1155 H        1 ZINC000084605049    0.1400
55     H55    -0.3388   -2.8753  -11.4861 H        1 ZINC000084605049    0.1200
56     H56    -0.9270   -1.2830  -10.9489 H        1 ZINC000084605049    0.0600
57     H57    -0.9756   -0.5935  -13.3107 H        1 ZINC000084605049    0.0400
58     H58     0.5214   -0.6856  -14.2693 H        1 ZINC000084605049    0.0800
59     H59    -0.3295   -2.1776  -13.8022 H        1 ZINC000084605049    0.0800
60     H60     1.7546    0.5574  -12.6473 H        1 ZINC000084605049    0.1200
61     H61     0.3033    0.7343  -11.6313 H        1 ZINC000084605049    0.0600
62     H62     2.3585    0.9876  -10.2749 H        1 ZINC000084605049    0.1400
63     H63     2.9109   -0.6199  -10.8031 H        1 ZINC000084605049    0.1400
64     H64     3.0790    1.1502   -8.6787 H        1 ZINC000084605049    0.1000
65     H65     1.6399    1.2819   -7.6385 H        1 ZINC000084605049    0.0900
66     H66     3.6358    1.5790   -6.2623 H        1 ZINC000084605049    0.1100
67     H67     4.3259    0.0555   -6.8786 H        1 ZINC000084605049    0.0800
68     H68     2.7138   -2.3263   -4.0225 H        1 ZINC000084605049    0.1400
69     H69     1.6920   -3.6814   -2.2468 H        1 ZINC000084605049    0.1700
70     H70    -0.0308   -2.3767    0.5794 H        1 ZINC000084605049    0.4300
71     H71     0.0219   -6.3012   -2.9547 H        1 ZINC000084605049    0.1800
72     H72    -2.9068   -5.8018    1.6621 H        1 ZINC000084605049    0.0800
73     H73    -3.0713   -7.5302    2.0542 H        1 ZINC000084605049    0.0600
74     H74    -2.1932   -6.4465    3.1599 H        1 ZINC000084605049    0.0600
75     H75    -0.0480   -7.2333    3.7668 H        1 ZINC000084605049    0.1300
76     H76     1.4365   -9.0704    4.4474 H        1 ZINC000084605049    0.1400
77     H77     1.9917  -10.8678    2.8628 H        1 ZINC000084605049    0.1400
78     H78     1.0351  -10.8660    0.6019 H        1 ZINC000084605049    0.1400
79     H79    -1.7780   -9.3900   -2.5827 H        1 ZINC000084605049    0.1100
80     H80    -2.5269   -7.7757   -2.5446 H        1 ZINC000084605049    0.0700
81     H81    -0.9359   -8.0008   -3.3103 H        1 ZINC000084605049    0.0700
@<TRIPOS>BOND
1     1     2     1
2     1     44    1
3     1     45    1
4     1     46    1
5     2     3     1
6     3     24    ar
7     3     4     ar
8     4     5     ar
9     4     47    1
10    5     6     1
11    5     22    ar
12    6     7     2
13    6     8     am
14    8     21    1
15    8     9     1
16    9     10    1
17    9     48    1
18    9     49    1
19    10    11    1
20    10    50    1
21    10    51    1
22    11    12    1
23    11    20    1
24    11    52    1
25    12    13    1
26    12    19    1
27    12    14    1
28    14    15    1
29    14    53    1
30    14    54    1
31    15    16    1
32    15    55    1
33    15    56    1
34    16    17    1
35    16    18    1
36    17    57    1
37    17    58    1
38    17    59    1
39    18    19    1
40    18    60    1
41    18    61    1
42    19    62    1
43    19    63    1
44    20    21    1
45    20    64    1
46    20    65    1
47    21    66    1
48    21    67    1
49    22    23    ar
50    22    68    1
51    23    24    ar
52    23    69    1
53    24    25    1
54    25    26    1
55    25    70    1
56    26    31    ar
57    26    27    ar
58    27    28    ar
59    28    29    ar
60    28    71    1
61    29    42    1
62    29    30    ar
63    30    31    ar
64    30    32    1
65    32    33    1
66    32    34    1
67    33    72    1
68    33    73    1
69    33    74    1
70    34    39    ar
71    34    35    ar
72    35    36    ar
73    35    75    1
74    36    37    ar
75    36    76    1
76    37    38    ar
77    37    77    1
78    38    39    ar
79    38    78    1
80    39    40    1
81    40    41    2
82    40    42    am
83    42    43    1
84    43    79    1
85    43    80    1
86    43    81    1
@<TRIPOS>SUBSTRUCTURE
1   ZINC000084605049 1     RESIDUE    1   A     ZIN   1
