@<TRIPOS>MOLECULE
ZINC000014945648
48    50    1     0     0
SMALL
USER_CHARGES
@<TRIPOS>ATOM
1      C1     11.6630    1.7608   -6.0194 C.3      1 ZINC000014945648    0.0800
2      N2     10.4964    2.6032   -5.7443 N.am     1 ZINC000014945648   -1.0100
3      C3     10.5930    3.6926   -4.7696 C.3      1 ZINC000014945648    0.0900
4      S4      9.0685    2.3239   -6.5352 S.o2     1 ZINC000014945648    2.6900
5      O5      8.3483    3.5485   -6.5074 O.2      1 ZINC000014945648   -0.9500
6      O6      9.4023    1.6457   -7.7385 O.2      1 ZINC000014945648   -0.9600
7      C7      8.1467    1.1822   -5.5598 C.ar     1 ZINC000014945648   -0.7000
8      C8      8.2954   -0.1773   -5.7644 C.ar     1 ZINC000014945648    0.0000
9      C9      7.5747   -1.0749   -5.0013 C.ar     1 ZINC000014945648   -0.1400
10     C10     6.6996   -0.6106   -4.0275 C.ar     1 ZINC000014945648    0.2200
11     N11     5.9691   -1.5162   -3.2532 N.pl3    1 ZINC000014945648   -0.6600
12     C12     6.5388   -2.7201   -2.8739 C.ar     1 ZINC000014945648    0.4500
13     C13     5.7661   -3.6600   -2.1926 C.ar     1 ZINC000014945648   -0.2700
14     C14     6.3261   -4.8504   -1.8165 C.ar     1 ZINC000014945648    0.0400
15     C15     7.6728   -5.0880   -2.1323 C.ar     1 ZINC000014945648   -0.3100
16     C16     8.3182   -6.3525   -1.7493 C.2      1 ZINC000014945648    0.4600
17     O17     8.0922   -7.3670   -2.3822 O.2      1 ZINC000014945648   -0.4200
18     C18     9.2398   -6.3913   -0.5976 C.ar     1 ZINC000014945648   -0.2500
19     C19     9.4998   -5.2278    0.1353 C.ar     1 ZINC000014945648    0.1900
20     F20     8.9073   -4.0635   -0.2092 F        1 ZINC000014945648   -0.1100
21     C21    10.3640   -5.2734    1.2128 C.ar     1 ZINC000014945648   -0.1800
22     C22    10.9716   -6.4644    1.5673 C.ar     1 ZINC000014945648   -0.0200
23     C23    10.7205   -7.6192    0.8485 C.ar     1 ZINC000014945648   -0.1800
24     C24     9.8546   -7.5931   -0.2283 C.ar     1 ZINC000014945648    0.1900
25     F25     9.6106   -8.7221   -0.9290 F        1 ZINC000014945648   -0.1100
26     C26     8.3956   -4.0964   -2.8219 C.ar     1 ZINC000014945648    0.4900
27     N27     9.7226   -4.3103   -3.1429 N.pl3    1 ZINC000014945648   -0.8400
28     N28     7.8082   -2.9624   -3.1693 N.ar     1 ZINC000014945648   -0.5800
29     C29     6.5527    0.7557   -3.8246 C.ar     1 ZINC000014945648   -0.1700
30     C30     7.2803    1.6477   -4.5876 C.ar     1 ZINC000014945648    0.0000
31     H31    11.6641    0.9085   -5.3399 H        1 ZINC000014945648    0.0600
32     H32    11.6196    1.4048   -7.0487 H        1 ZINC000014945648    0.0800
33     H33    12.5735    2.3423   -5.8741 H        1 ZINC000014945648    0.0800
34     H34    10.9053    4.6061   -5.2755 H        1 ZINC000014945648    0.0600
35     H35     9.6206    3.8498   -4.3029 H        1 ZINC000014945648    0.0700
36     H36    11.3251    3.4322   -4.0051 H        1 ZINC000014945648    0.0700
37     H37     8.9756   -0.5376   -6.5219 H        1 ZINC000014945648    0.1400
38     H38     7.6911   -2.1365   -5.1618 H        1 ZINC000014945648    0.1400
39     H39     5.0630   -1.3015   -2.9814 H        1 ZINC000014945648    0.4300
40     H40     4.7320   -3.4495   -1.9628 H        1 ZINC000014945648    0.1400
41     H41     5.7445   -5.5911   -1.2878 H        1 ZINC000014945648    0.1400
42     H42    10.5657   -4.3764    1.7795 H        1 ZINC000014945648    0.1500
43     H43    11.6464   -6.4927    2.4100 H        1 ZINC000014945648    0.1500
44     H44    11.1992   -8.5448    1.1322 H        1 ZINC000014945648    0.1500
45     H45    10.1328   -5.1706   -2.9622 H        1 ZINC000014945648    0.4100
46     H46    10.2440   -3.6002   -3.5489 H        1 ZINC000014945648    0.4100
47     H47     5.8729    1.1200   -3.0685 H        1 ZINC000014945648    0.1300
48     H48     7.1668    2.7101   -4.4302 H        1 ZINC000014945648    0.1400
@<TRIPOS>BOND
1     1     2     1
2     1     31    1
3     1     32    1
4     1     33    1
5     2     3     1
6     2     4     am
7     3     34    1
8     3     35    1
9     3     36    1
10    4     5     2
11    4     6     2
12    4     7     1
13    7     30    ar
14    7     8     ar
15    8     9     ar
16    8     37    1
17    9     10    ar
18    9     38    1
19    10    11    1
20    10    29    ar
21    11    12    1
22    11    39    1
23    12    28    ar
24    12    13    ar
25    13    14    ar
26    13    40    1
27    14    15    ar
28    14    41    1
29    15    16    1
30    15    26    ar
31    16    17    2
32    16    18    1
33    18    24    ar
34    18    19    ar
35    19    20    1
36    19    21    ar
37    21    22    ar
38    21    42    1
39    22    23    ar
40    22    43    1
41    23    24    ar
42    23    44    1
43    24    25    1
44    26    27    1
45    26    28    ar
46    27    45    1
47    27    46    1
48    29    30    ar
49    29    47    1
50    30    48    1
@<TRIPOS>SUBSTRUCTURE
1   ZINC000014945648 1     RESIDUE    1   A     ZIN   1
