@<TRIPOS>MOLECULE
ZINC000084603293
69    74    1     0     0
SMALL
USER_CHARGES
@<TRIPOS>ATOM
1      O1      0.0021   -0.0041    0.0020 O.2      1 ZINC000084603293   -0.4900
2      C2     -0.0144    1.2134    0.0087 C.2      1 ZINC000084603293    0.5800
3      N3      1.1435    1.9031    0.0014 N.am     1 ZINC000084603293   -0.7300
4      C4      2.4219    1.1879   -0.0147 C.3      1 ZINC000084603293    0.1200
5      C5      3.5712    2.1979   -0.0202 C.3      1 ZINC000084603293    0.0400
6      N6      4.8532    1.4808   -0.0363 N.3      1 ZINC000084603293   -0.5300
7      C7      4.8601    0.3917    0.9512 C.3      1 ZINC000084603293    0.0100
8      C8      6.1880   -0.3647    0.8594 C.3      1 ZINC000084603293    0.0600
9      O9      7.2677    0.5521    1.0570 O.3      1 ZINC000084603293   -0.3800
10     C10     7.2918    1.6254    0.1121 C.3      1 ZINC000084603293    0.0600
11     C11     5.9751    2.4020    0.1963 C.3      1 ZINC000084603293    0.0200
12     C12    -1.2911    1.9275    0.0186 C.2      1 ZINC000084603293    0.0500
13     C13    -2.5472    1.3360    0.0269 C.2      1 ZINC000084603293    0.0000
14     C14    -2.8424   -0.1036    0.0278 C.2      1 ZINC000084603293    0.0600
15     C15    -3.0123   -0.9210   -1.0804 C.2      1 ZINC000084603293    0.0700
16     C16    -2.9301   -0.5044   -2.4989 C.ar     1 ZINC000084603293    0.0000
17     C17    -3.3733    0.7611   -2.8840 C.ar     1 ZINC000084603293   -0.1100
18     C18    -3.2936    1.1436   -4.2073 C.ar     1 ZINC000084603293   -0.1200
19     C19    -2.7755    0.2750   -5.1514 C.ar     1 ZINC000084603293   -0.1200
20     C20    -2.3343   -0.9813   -4.7758 C.ar     1 ZINC000084603293   -0.1200
21     C21    -2.4038   -1.3736   -3.4548 C.ar     1 ZINC000084603293   -0.0900
22     N22    -3.2654   -2.1618   -0.6276 N.2      1 ZINC000084603293   -0.4700
23     C23    -3.2624   -2.1611    0.6767 C.2      1 ZINC000084603293    0.2000
24     N24    -3.0007   -0.9160    1.1292 N.pl3    1 ZINC000084603293   -0.4400
25     C25    -2.9113   -0.5034    2.5320 C.3      1 ZINC000084603293    0.1500
26     C26    -4.2416    0.0448    2.9802 C.ar     1 ZINC000084603293   -0.1100
27     C27    -4.5177    1.3917    2.8365 C.ar     1 ZINC000084603293   -0.0800
28     C28    -5.7376    1.8950    3.2474 C.ar     1 ZINC000084603293   -0.1100
29     C29    -6.6825    1.0505    3.8026 C.ar     1 ZINC000084603293   -0.0200
30     Cl30   -8.2151    1.6819    4.3183 Cl       1 ZINC000084603293   -0.0600
31     C31    -6.4056   -0.2974    3.9461 C.ar     1 ZINC000084603293   -0.1100
32     C32    -5.1875   -0.8005    3.5297 C.ar     1 ZINC000084603293   -0.0800
33     C33    -3.5232    2.4354    0.0352 C.ar     1 ZINC000084603293   -0.1000
34     C34    -4.9184    2.4813    0.0448 C.ar     1 ZINC000084603293   -0.0400
35     C35    -5.5587    3.6881    0.0503 C.ar     1 ZINC000084603293   -0.1300
36     C36    -4.8311    4.8717    0.0464 C.ar     1 ZINC000084603293    0.0000
37     Cl37   -5.6657    6.3939    0.0536 Cl       1 ZINC000084603293   -0.0600
38     C38    -3.4529    4.8490    0.0374 C.ar     1 ZINC000084603293   -0.1200
39     C39    -2.7799    3.6294    0.0312 C.ar     1 ZINC000084603293    0.1300
40     N40    -1.4437    3.3012    0.0273 N.pl3    1 ZINC000084603293   -0.5700
41     H41     1.1303    2.8730    0.0067 H        1 ZINC000084603293    0.4000
42     H42     2.4967    0.5574    0.8712 H        1 ZINC000084603293    0.0800
43     H43     2.4797    0.5669   -0.9086 H        1 ZINC000084603293    0.0800
44     H44     3.4965    2.8285   -0.9062 H        1 ZINC000084603293    0.0900
45     H45     3.5135    2.8189    0.8737 H        1 ZINC000084603293    0.0400
46     H46     4.7464    0.8074    1.9523 H        1 ZINC000084603293    0.0500
47     H47     4.0367   -0.2921    0.7447 H        1 ZINC000084603293    0.0900
48     H48     6.2209   -1.1368    1.6281 H        1 ZINC000084603293    0.1000
49     H49     6.2772   -0.8255   -0.1243 H        1 ZINC000084603293    0.0600
50     H50     8.1231    2.2926    0.3402 H        1 ZINC000084603293    0.1000
51     H51     7.4131    1.2225   -0.8934 H        1 ZINC000084603293    0.0600
52     H52     5.9657    3.1856   -0.5613 H        1 ZINC000084603293    0.0900
53     H53     5.8793    2.8498    1.1854 H        1 ZINC000084603293    0.0500
54     H54    -3.7782    1.4398   -2.1480 H        1 ZINC000084603293    0.1200
55     H55    -3.6366    2.1229   -4.5068 H        1 ZINC000084603293    0.1200
56     H56    -2.7155    0.5789   -6.1861 H        1 ZINC000084603293    0.1200
57     H57    -1.9312   -1.6550   -5.5175 H        1 ZINC000084603293    0.1200
58     H58    -2.0588   -2.3545   -3.1628 H        1 ZINC000084603293    0.1300
59     H59    -3.4384   -3.0255    1.2999 H        1 ZINC000084603293    0.2100
60     H60    -2.6466   -1.3632    3.1475 H        1 ZINC000084603293    0.1100
61     H61    -2.1472    0.2669    2.6362 H        1 ZINC000084603293    0.1000
62     H62    -3.7799    2.0508    2.4035 H        1 ZINC000084603293    0.1300
63     H63    -5.9530    2.9474    3.1354 H        1 ZINC000084603293    0.1400
64     H64    -7.1426   -0.9570    4.3797 H        1 ZINC000084603293    0.1400
65     H65    -4.9713   -1.8528    3.6414 H        1 ZINC000084603293    0.1300
66     H66    -5.4901    1.5651    0.0475 H        1 ZINC000084603293    0.1300
67     H67    -6.6382    3.7223    0.0574 H        1 ZINC000084603293    0.1400
68     H68    -2.8963    5.7744    0.0345 H        1 ZINC000084603293    0.1400
69     H69    -0.7146    3.9410    0.0293 H        1 ZINC000084603293    0.4200
@<TRIPOS>BOND
1     1     2     2
2     2     3     am
3     2     12    1
4     3     4     1
5     3     41    1
6     4     5     1
7     4     42    1
8     4     43    1
9     5     6     1
10    5     44    1
11    5     45    1
12    6     11    1
13    6     7     1
14    7     8     1
15    7     46    1
16    7     47    1
17    8     9     1
18    8     48    1
19    8     49    1
20    9     10    1
21    10    11    1
22    10    50    1
23    10    51    1
24    11    52    1
25    11    53    1
26    12    40    1
27    12    13    2
28    13    14    1
29    13    33    1
30    14    24    1
31    14    15    2
32    15    16    1
33    15    22    1
34    16    21    ar
35    16    17    ar
36    17    18    ar
37    17    54    1
38    18    19    ar
39    18    55    1
40    19    20    ar
41    19    56    1
42    20    21    ar
43    20    57    1
44    21    58    1
45    22    23    2
46    23    24    1
47    23    59    1
48    24    25    1
49    25    26    1
50    25    60    1
51    25    61    1
52    26    32    ar
53    26    27    ar
54    27    28    ar
55    27    62    1
56    28    29    ar
57    28    63    1
58    29    30    1
59    29    31    ar
60    31    32    ar
61    31    64    1
62    32    65    1
63    33    39    ar
64    33    34    ar
65    34    35    ar
66    34    66    1
67    35    36    ar
68    35    67    1
69    36    37    1
70    36    38    ar
71    38    39    ar
72    38    68    1
73    39    40    1
74    40    69    1
@<TRIPOS>SUBSTRUCTURE
1   ZINC000084603293 1     RESIDUE    1   A     ZIN   1
