@<TRIPOS>MOLECULE
ZINC000035328010
57    61    1     0     0
SMALL
USER_CHARGES
@<TRIPOS>ATOM
1      C1      4.6579    1.9423   -1.4811 C.2      1 ZINC000035328010   -0.0800
2      C2      4.5925    0.6415   -1.2120 C.2      1 ZINC000035328010   -0.2300
3      C3      3.3691    0.0722   -0.6262 C.2      1 ZINC000035328010    0.5500
4      O4      2.4533    0.8034   -0.3012 O.2      1 ZINC000035328010   -0.5400
5      N5      3.2631   -1.2597   -0.4497 N.am     1 ZINC000035328010   -0.6100
6      C6      2.0044   -1.8548    0.0197 C.3      1 ZINC000035328010    0.1100
7      C7      1.5835   -2.9547   -0.9601 C.3      1 ZINC000035328010   -0.1300
8      C8      2.7303   -3.9552   -1.1210 C.3      1 ZINC000035328010   -0.1300
9      C9      3.9562   -3.2408   -1.6944 C.3      1 ZINC000035328010    0.1600
10     H10     3.7004   -2.7936   -2.6550 H        1 ZINC000035328010    0.1200
11     N11     5.0430   -4.2058   -1.8782 N.pl3    1 ZINC000035328010   -0.3700
12     N12     5.6235   -4.9722   -0.8620 N.2      1 ZINC000035328010   -0.2300
13     C13     6.5672   -5.7346   -1.3619 C.2      1 ZINC000035328010    0.1700
14     C14     7.4148   -6.6898   -0.6094 C.ar     1 ZINC000035328010   -0.0200
15     C15     6.8368   -7.5565    0.3177 C.ar     1 ZINC000035328010   -0.0700
16     C16     7.6280   -8.4439    1.0161 C.ar     1 ZINC000035328010   -0.1300
17     C17     8.9989   -8.4749    0.7974 C.ar     1 ZINC000035328010    0.1000
18     O18     9.7758   -9.3504    1.4872 O.3      1 ZINC000035328010   -0.2600
19     C19     9.7890  -10.6475    1.0824 C.ar     1 ZINC000035328010    0.1200
20     C20     9.0718  -11.0322   -0.0415 C.ar     1 ZINC000035328010   -0.2000
21     C21     9.0873  -12.3513   -0.4511 C.ar     1 ZINC000035328010   -0.0800
22     C22     9.8163  -13.2881    0.2579 C.ar     1 ZINC000035328010   -0.1500
23     C23    10.5319  -12.9074    1.3781 C.ar     1 ZINC000035328010   -0.0800
24     C24    10.5244  -11.5885    1.7888 C.ar     1 ZINC000035328010   -0.1400
25     C25     9.5775   -7.6132   -0.1251 C.ar     1 ZINC000035328010   -0.1200
26     C26     8.7910   -6.7277   -0.8312 C.ar     1 ZINC000035328010   -0.0900
27     C27     6.6281   -5.4682   -2.7989 C.ar     1 ZINC000035328010   -0.3200
28     C28     7.4050   -5.9479   -3.8659 C.ar     1 ZINC000035328010    0.5200
29     N29     8.3826   -6.9016   -3.6573 N.pl3    1 ZINC000035328010   -0.8300
30     N30     7.1759   -5.4617   -5.0820 N.ar     1 ZINC000035328010   -0.6000
31     C31     6.2421   -4.5501   -5.2875 C.ar     1 ZINC000035328010    0.3900
32     N32     5.4913   -4.0716   -4.3197 N.ar     1 ZINC000035328010   -0.5700
33     C33     5.6416   -4.5006   -3.0668 C.ar     1 ZINC000035328010    0.3800
34     C34     4.4021   -2.1448   -0.7288 C.3      1 ZINC000035328010    0.1000
35     H35     3.8128    2.5806   -1.2697 H        1 ZINC000035328010    0.1200
36     H36     5.5577    2.3610   -1.9071 H        1 ZINC000035328010    0.1200
37     H37     5.4376    0.0031   -1.4234 H        1 ZINC000035328010    0.1300
38     H38     2.1507   -2.2846    1.0107 H        1 ZINC000035328010    0.0700
39     H39     1.2311   -1.0879    0.0623 H        1 ZINC000035328010    0.1000
40     H40     0.7035   -3.4689   -0.5736 H        1 ZINC000035328010    0.0900
41     H41     1.3501   -2.5102   -1.9276 H        1 ZINC000035328010    0.0700
42     H42     2.9797   -4.3810   -0.1491 H        1 ZINC000035328010    0.0800
43     H43     2.4244   -4.7523   -1.7987 H        1 ZINC000035328010    0.0700
44     H44     5.7707   -7.5323    0.4887 H        1 ZINC000035328010    0.1400
45     H45     7.1809   -9.1153    1.7343 H        1 ZINC000035328010    0.1400
46     H46     8.5016  -10.3009   -0.5952 H        1 ZINC000035328010    0.1300
47     H47     8.5292  -12.6512   -1.3257 H        1 ZINC000035328010    0.1300
48     H48     9.8266  -14.3191   -0.0636 H        1 ZINC000035328010    0.1300
49     H49    11.1003  -13.6412    1.9304 H        1 ZINC000035328010    0.1300
50     H50    11.0838  -11.2916    2.6636 H        1 ZINC000035328010    0.1300
51     H51    10.6441   -7.6394   -0.2927 H        1 ZINC000035328010    0.1400
52     H52     9.2414   -6.0581   -1.5489 H        1 ZINC000035328010    0.1400
53     H53     8.3914   -7.4151   -2.8344 H        1 ZINC000035328010    0.4100
54     H54     9.0601   -7.0576   -4.3336 H        1 ZINC000035328010    0.4100
55     H55     6.0893   -4.1824   -6.2914 H        1 ZINC000035328010    0.2100
56     H56     5.2121   -1.5698   -1.1776 H        1 ZINC000035328010    0.0900
57     H57     4.7440   -2.5956    0.2029 H        1 ZINC000035328010    0.0900
@<TRIPOS>BOND
1     1     2     2
2     1     35    1
3     1     36    1
4     2     3     1
5     2     37    1
6     3     4     2
7     3     5     am
8     5     34    1
9     5     6     1
10    6     7     1
11    6     38    1
12    6     39    1
13    7     8     1
14    7     40    1
15    7     41    1
16    8     9     1
17    8     42    1
18    8     43    1
19    9     10    1
20    9     11    1
21    9     34    1
22    11    33    1
23    11    12    1
24    12    13    2
25    13    14    1
26    13    27    1
27    14    26    ar
28    14    15    ar
29    15    16    ar
30    15    44    1
31    16    17    ar
32    16    45    1
33    17    18    1
34    17    25    ar
35    18    19    1
36    19    24    ar
37    19    20    ar
38    20    21    ar
39    20    46    1
40    21    22    ar
41    21    47    1
42    22    23    ar
43    22    48    1
44    23    24    ar
45    23    49    1
46    24    50    1
47    25    26    ar
48    25    51    1
49    26    52    1
50    27    33    ar
51    27    28    ar
52    28    29    1
53    28    30    ar
54    29    53    1
55    29    54    1
56    30    31    ar
57    31    32    ar
58    31    55    1
59    32    33    ar
60    34    56    1
61    34    57    1
@<TRIPOS>SUBSTRUCTURE
1   ZINC000035328010 1     RESIDUE    1   A     ZIN   1
