@<TRIPOS>MOLECULE
ZINC000000580677
41    43    1     0     0
SMALL
USER_CHARGES
@<TRIPOS>ATOM
1      C1     -0.5700   -3.6556    4.2836 C.3      1 ZINC000000580677    0.0200
2      O2     -0.4427   -3.3778    2.8876 O.3      1 ZINC000000580677   -0.3000
3      C3      0.3395   -2.3220    2.5370 C.ar     1 ZINC000000580677    0.1400
4      C4      0.9721   -1.5774    3.5142 C.ar     1 ZINC000000580677   -0.1700
5      C5      1.7775   -0.4909    3.1522 C.ar     1 ZINC000000580677   -0.0100
6      C6      2.4520    0.3027    4.1876 C.2      1 ZINC000000580677   -0.0200
7      C7      2.9841   -0.3116    5.2742 C.2      1 ZINC000000580677    0.0200
8      N8      3.5078    0.2953    6.4242 N.am     1 ZINC000000580677   -0.6600
9      C9      3.9269   -0.6811    7.2484 C.2      1 ZINC000000580677    0.7000
10     O10     4.4343   -0.4924    8.3373 O.2      1 ZINC000000580677   -0.5100
11     N11     3.7107   -1.8912    6.7105 N.am     1 ZINC000000580677   -0.5200
12     C12     4.0349   -3.1123    7.3177 C.ar     1 ZINC000000580677    0.1300
13     C13     3.7687   -4.3072    6.6628 C.ar     1 ZINC000000580677   -0.1400
14     C14     4.0894   -5.5088    7.2637 C.ar     1 ZINC000000580677   -0.1000
15     C15     4.6749   -5.5225    8.5163 C.ar     1 ZINC000000580677   -0.1200
16     C16     4.9408   -4.3340    9.1713 C.ar     1 ZINC000000580677   -0.1000
17     C17     4.6281   -3.1291    8.5728 C.ar     1 ZINC000000580677   -0.1400
18     C18     3.1294   -1.7574    5.5012 C.2      1 ZINC000000580677    0.5500
19     O19     2.7990   -2.6528    4.7459 O.2      1 ZINC000000580677   -0.4400
20     C20     1.9385   -0.1633    1.8007 C.ar     1 ZINC000000580677   -0.2000
21     C21     1.3025   -0.9128    0.8295 C.ar     1 ZINC000000580677    0.1300
22     O22     1.4583   -0.5954   -0.4837 O.3      1 ZINC000000580677   -0.3000
23     C23     2.2931    0.5243   -0.7859 C.3      1 ZINC000000580677    0.0200
24     C24     0.5065   -1.9961    1.1934 C.ar     1 ZINC000000580677    0.0600
25     O25    -0.1172   -2.7312    0.2350 O.3      1 ZINC000000580677   -0.4700
26     H26    -1.0015   -2.7911    4.7882 H        1 ZINC000000580677    0.0500
27     H27    -1.2191   -4.5199    4.4243 H        1 ZINC000000580677    0.1000
28     H28     0.4135   -3.8677    4.7030 H        1 ZINC000000580677    0.0600
29     H29     0.8451   -1.8330    4.5558 H        1 ZINC000000580677    0.1300
30     H30     2.5245    1.3752    4.0841 H        1 ZINC000000580677    0.1600
31     H31     3.5588    1.2488    6.5949 H        1 ZINC000000580677    0.4400
32     H32     3.3111   -4.2971    5.6846 H        1 ZINC000000580677    0.1500
33     H33     3.8822   -6.4386    6.7548 H        1 ZINC000000580677    0.1300
34     H34     4.9247   -6.4633    8.9842 H        1 ZINC000000580677    0.1300
35     H35     5.3978   -4.3479   10.1497 H        1 ZINC000000580677    0.1300
36     H36     4.8363   -2.2012    9.0847 H        1 ZINC000000580677    0.1600
37     H37     2.5587    0.6742    1.5175 H        1 ZINC000000580677    0.1400
38     H38     1.8857    1.4188   -0.3147 H        1 ZINC000000580677    0.0600
39     H39     3.2987    0.3404   -0.4077 H        1 ZINC000000580677    0.0600
40     H40     2.3316    0.6679   -1.8657 H        1 ZINC000000580677    0.1000
41     H41     0.4052   -3.4768   -0.0910 H        1 ZINC000000580677    0.3900
@<TRIPOS>BOND
1     1     2     1
2     1     26    1
3     1     27    1
4     1     28    1
5     2     3     1
6     3     24    ar
7     3     4     ar
8     4     5     ar
9     4     29    1
10    5     6     1
11    5     20    ar
12    6     7     2
13    6     30    1
14    7     18    1
15    7     8     1
16    8     9     am
17    8     31    1
18    9     10    2
19    9     11    am
20    11    12    1
21    11    18    am
22    12    17    ar
23    12    13    ar
24    13    14    ar
25    13    32    1
26    14    15    ar
27    14    33    1
28    15    16    ar
29    15    34    1
30    16    17    ar
31    16    35    1
32    17    36    1
33    18    19    2
34    20    21    ar
35    20    37    1
36    21    22    1
37    21    24    ar
38    22    23    1
39    23    38    1
40    23    39    1
41    23    40    1
42    24    25    1
43    25    41    1
@<TRIPOS>SUBSTRUCTURE
1   ZINC000000580677 1     RESIDUE    1   A     ZIN   1
