@<TRIPOS>MOLECULE
ZINC000000601272
46    48    1     0     0
SMALL
USER_CHARGES
@<TRIPOS>ATOM
1      C1     -0.0269    1.4187    0.0087 C.3      1 ZINC000000601272    0.0300
2      O2     -0.0046   -0.0101    0.0008 O.3      1 ZINC000000601272   -0.3200
3      C3      0.6010   -0.6123   -1.0572 C.ar     1 ZINC000000601272    0.1100
4      C4      1.1675    0.1625   -2.0647 C.ar     1 ZINC000000601272   -0.1800
5      C5      1.7850   -0.4328   -3.1436 C.ar     1 ZINC000000601272   -0.0900
6      C6      1.8453   -1.8176   -3.2323 C.ar     1 ZINC000000601272    0.0800
7      C7      1.2741   -2.6035   -2.2164 C.ar     1 ZINC000000601272   -0.0300
8      C8      0.6566   -1.9914   -1.1252 C.ar     1 ZINC000000601272   -0.1100
9      C9      1.5032   -4.0000   -2.6031 C.2      1 ZINC000000601272   -0.1400
10     C10     1.0746   -5.2230   -1.8341 C.3      1 ZINC000000601272   -0.0400
11     C11    -0.3037   -5.6391   -2.2795 C.2      1 ZINC000000601272    0.4500
12     O12    -0.8789   -5.0072   -3.1338 O.2      1 ZINC000000601272   -0.5200
13     O13    -0.8923   -6.7116   -1.7272 O.3      1 ZINC000000601272   -0.3200
14     C14    -2.2200   -7.0538   -2.2049 C.3      1 ZINC000000601272    0.0100
15     C15    -2.7166   -8.2757   -1.4759 C.2      1 ZINC000000601272    0.5000
16     O16    -2.0164   -8.8087   -0.6320 O.co2    1 ZINC000000601272   -0.6700
17     O17    -3.8186   -8.7313   -1.7300 O.co2    1 ZINC000000601272   -0.6900
18     C18     2.1647   -3.9843   -3.7687 C.2      1 ZINC000000601272    0.1200
19     C19     2.6049   -5.2079   -4.5304 C.3      1 ZINC000000601272   -0.1000
20     N20     2.3815   -2.6873   -4.1663 N.am     1 ZINC000000601272   -0.5100
21     C21     3.0190   -2.3177   -5.2948 C.2      1 ZINC000000601272    0.6100
22     O22     4.2057   -2.0579   -5.2649 O.2      1 ZINC000000601272   -0.4300
23     C23     2.2754   -2.2284   -6.5674 C.ar     1 ZINC000000601272   -0.1600
24     C24     0.8916   -2.4171   -6.5857 C.ar     1 ZINC000000601272   -0.0400
25     C25     0.2029   -2.3320   -7.7771 C.ar     1 ZINC000000601272   -0.1200
26     C26     0.8806   -2.0599   -8.9543 C.ar     1 ZINC000000601272    0.0000
27     Cl27    0.0063   -1.9538  -10.4503 Cl       1 ZINC000000601272   -0.0600
28     C28     2.2530   -1.8718   -8.9426 C.ar     1 ZINC000000601272   -0.1300
29     C29     2.9522   -1.9491   -7.7568 C.ar     1 ZINC000000601272   -0.0400
30     H30     0.9950    1.7980    0.0014 H        1 ZINC000000601272    0.0500
31     H31    -0.5544    1.7787   -0.8746 H        1 ZINC000000601272    0.0500
32     H32    -0.5381    1.7692    0.9053 H        1 ZINC000000601272    0.1000
33     H33     1.1227    1.2397   -2.0008 H        1 ZINC000000601272    0.1300
34     H34     2.2217    0.1776   -3.9203 H        1 ZINC000000601272    0.1200
35     H35     0.2167   -2.5920   -0.3428 H        1 ZINC000000601272    0.1400
36     H36     1.7774   -6.0348   -2.0215 H        1 ZINC000000601272    0.1100
37     H37     1.0586   -4.9950   -0.7683 H        1 ZINC000000601272    0.1200
38     H38    -2.8982   -6.2205   -2.0213 H        1 ZINC000000601272    0.0700
39     H39    -2.1794   -7.2603   -3.2744 H        1 ZINC000000601272    0.0700
40     H40     1.8173   -5.5086   -5.2213 H        1 ZINC000000601272    0.0900
41     H41     3.5121   -4.9805   -5.0903 H        1 ZINC000000601272    0.0700
42     H42     2.8037   -6.0195   -3.8305 H        1 ZINC000000601272    0.1000
43     H43     0.3622   -2.6296   -5.6687 H        1 ZINC000000601272    0.1500
44     H44    -0.8670   -2.4781   -7.7927 H        1 ZINC000000601272    0.1500
45     H45     2.7757   -1.6603   -9.8637 H        1 ZINC000000601272    0.1400
46     H46     4.0221   -1.8019   -7.7490 H        1 ZINC000000601272    0.1500
@<TRIPOS>BOND
1     1     2     1
2     1     30    1
3     1     31    1
4     1     32    1
5     2     3     1
6     3     8     ar
7     3     4     ar
8     4     5     ar
9     4     33    1
10    5     6     ar
11    5     34    1
12    6     20    1
13    6     7     ar
14    7     8     ar
15    7     9     1
16    8     35    1
17    9     10    1
18    9     18    2
19    10    11    1
20    10    36    1
21    10    37    1
22    11    12    2
23    11    13    1
24    13    14    1
25    14    15    1
26    14    38    1
27    14    39    1
28    15    16    ar
29    15    17    ar
30    18    19    1
31    18    20    1
32    19    40    1
33    19    41    1
34    19    42    1
35    20    21    am
36    21    22    2
37    21    23    1
38    23    29    ar
39    23    24    ar
40    24    25    ar
41    24    43    1
42    25    26    ar
43    25    44    1
44    26    27    1
45    26    28    ar
46    28    29    ar
47    28    45    1
48    29    46    1
@<TRIPOS>SUBSTRUCTURE
1   ZINC000000601272 1     RESIDUE    1   A     ZIN   1
