@<TRIPOS>MOLECULE
ZINC000114234635
44    47    1     0     0
SMALL
USER_CHARGES
@<TRIPOS>ATOM
1      N1      0.9037   -2.0617   -1.2162 N.4      1 ZINC000114234635   -0.6300
2      H2      1.1034   -2.2746   -2.1821 H        1 ZINC000114234635    0.4300
3      H3      1.6312   -2.4431   -0.6304 H        1 ZINC000114234635    0.4400
4      H4      0.0168   -2.4680   -0.9587 H        1 ZINC000114234635    0.4400
5      C5      0.8450   -0.6047   -1.0381 C.3      1 ZINC000114234635    0.0300
6      H6      0.5464   -0.3743   -0.0154 H        1 ZINC000114234635    0.1500
7      C7     -0.1742   -0.0109   -2.0144 C.3      1 ZINC000114234635   -0.1400
8      C8     -0.1855    1.5128   -1.8640 C.3      1 ZINC000114234635   -0.1100
9      C9      1.2223    2.0561   -2.1185 C.3      1 ZINC000114234635    0.0200
10     N10     2.1598    1.4586   -1.1590 N.3      1 ZINC000114234635   -0.4900
11     C11     3.4230    2.0277   -1.2762 C.ar     1 ZINC000114234635    0.2000
12     C12     3.9945    2.7456   -0.2147 C.ar     1 ZINC000114234635   -0.1300
13     C13     3.5591    3.0791    1.1451 C.2      1 ZINC000114234635    0.0700
14     N14     2.3372    2.7261    1.7445 N.am     1 ZINC000114234635   -0.6300
15     C15     2.0146    3.2178    2.9572 C.2      1 ZINC000114234635    0.5400
16     O16     2.8134    3.8956    3.5690 O.2      1 ZINC000114234635   -0.5200
17     C17     0.6617    2.9256    3.5532 C.3      1 ZINC000114234635   -0.2000
18     C18    -0.3376    4.0811    3.6376 C.3      1 ZINC000114234635   -0.1500
19     C19     0.3356    3.5565    4.9084 C.3      1 ZINC000114234635   -0.1400
20     C20     4.5530    3.7930    1.7077 C.2      1 ZINC000114234635    0.0600
21     N21     5.5868    3.9336    0.8116 N.pl3    1 ZINC000114234635   -0.5600
22     C22     5.2756    3.3021   -0.3684 C.ar     1 ZINC000114234635    0.3200
23     N23     5.9282    3.1538   -1.5162 N.ar     1 ZINC000114234635   -0.4800
24     C24     5.4112    2.4892   -2.5293 C.ar     1 ZINC000114234635    0.1900
25     C25     4.1581    1.9081   -2.4524 C.ar     1 ZINC000114234635   -0.2100
26     Br26    3.4515    0.9610   -3.9288 Br       1 ZINC000114234635   -0.0200
27     C27     2.2230    0.0000   -1.3164 C.3      1 ZINC000114234635    0.0100
28     H28     0.1030   -0.2742   -3.0351 H        1 ZINC000114234635    0.0900
29     H29    -1.1650   -0.4072   -1.7923 H        1 ZINC000114234635    0.1000
30     H30    -0.8783    1.9446   -2.5864 H        1 ZINC000114234635    0.1000
31     H31    -0.5004    1.7765   -0.8544 H        1 ZINC000114234635    0.0900
32     H32     1.5311    1.8040   -3.1330 H        1 ZINC000114234635    0.0700
33     H33     1.2208    3.1395   -1.9981 H        1 ZINC000114234635    0.1000
34     H34     1.7264    2.1287    1.2852 H        1 ZINC000114234635    0.4200
35     H35     0.2647    1.9305    3.3527 H        1 ZINC000114234635    0.1200
36     H36    -0.0164    5.0526    3.2621 H        1 ZINC000114234635    0.1000
37     H37    -1.3921    3.8461    3.4931 H        1 ZINC000114234635    0.1100
38     H38    -0.2764    2.9766    5.5993 H        1 ZINC000114234635    0.1100
39     H39     1.0997    4.1826    5.3690 H        1 ZINC000114234635    0.1100
40     H40     4.5403    4.1939    2.7104 H        1 ZINC000114234635    0.2100
41     H41     6.4143    4.4083    0.9870 H        1 ZINC000114234635    0.4300
42     H42     5.9800    2.3954   -3.4426 H        1 ZINC000114234635    0.1800
43     H43     2.9483   -0.4100   -0.6136 H        1 ZINC000114234635    0.1000
44     H44     2.5271   -0.2425   -2.3347 H        1 ZINC000114234635    0.0900
@<TRIPOS>BOND
1     1     2     1
2     1     3     1
3     1     4     1
4     1     5     1
5     5     6     1
6     5     27    1
7     5     7     1
8     7     8     1
9     7     28    1
10    7     29    1
11    8     9     1
12    8     30    1
13    8     31    1
14    9     10    1
15    9     32    1
16    9     33    1
17    10    11    1
18    10    27    1
19    11    25    ar
20    11    12    ar
21    12    22    ar
22    12    13    1
23    13    14    1
24    13    20    2
25    14    15    am
26    14    34    1
27    15    16    2
28    15    17    1
29    17    19    1
30    17    18    1
31    17    35    1
32    18    19    1
33    18    36    1
34    18    37    1
35    19    38    1
36    19    39    1
37    20    21    1
38    20    40    1
39    21    22    1
40    21    41    1
41    22    23    ar
42    23    24    ar
43    24    25    ar
44    24    42    1
45    25    26    1
46    27    43    1
47    27    44    1
@<TRIPOS>SUBSTRUCTURE
1   ZINC000114234635 1     RESIDUE    1   A     ZIN   1
