@<TRIPOS>MOLECULE
ZINC000000160480
43    45    1     0     0
SMALL
USER_CHARGES
@<TRIPOS>ATOM
1      C1     -0.0173    1.4248    0.0099 C.3      1 ZINC000000160480    0.0300
2      O2      0.0021   -0.0041    0.0020 O.3      1 ZINC000000160480   -0.3200
3      C3     -1.2003   -0.6375    0.0101 C.ar     1 ZINC000000160480    0.1300
4      C4     -2.3744    0.1010    0.0195 C.ar     1 ZINC000000160480   -0.2100
5      C5     -3.5956   -0.5454    0.0272 C.ar     1 ZINC000000160480   -0.0800
6      C6     -3.6478   -1.9268    0.0260 C.ar     1 ZINC000000160480   -0.1500
7      C7     -2.4787   -2.6653    0.0172 C.ar     1 ZINC000000160480   -0.0800
8      C8     -1.2554   -2.0239    0.0032 C.ar     1 ZINC000000160480   -0.1100
9      C9      0.0183   -2.8292   -0.0070 C.3      1 ZINC000000160480   -0.0400
10     C10     0.0768   -3.7066    1.2456 C.3      1 ZINC000000160480   -0.1200
11     C11     1.3886   -4.4978    1.2491 C.3      1 ZINC000000160480    0.1100
12     N12     1.4960   -5.2410   -0.0137 N.am     1 ZINC000000160480   -0.6100
13     C13     1.7121   -6.5713   -0.0113 C.2      1 ZINC000000160480    0.5300
14     O14     1.8198   -7.1663    1.0401 O.2      1 ZINC000000160480   -0.5400
15     C15     1.8198   -7.3196   -1.3150 C.3      1 ZINC000000160480   -0.1400
16     C16     3.2163   -7.2446   -1.9546 C.3      1 ZINC000000160480   -0.1200
17     C17     3.5695   -8.5018   -1.1425 C.3      1 ZINC000000160480   -0.1400
18     C18     2.0666   -8.8275   -1.1412 C.3      1 ZINC000000160480   -0.1200
19     C19     1.3628   -4.5065   -1.2792 C.3      1 ZINC000000160480    0.1100
20     C20     0.0513   -3.7152   -1.2544 C.3      1 ZINC000000160480   -0.1300
21     H21     1.0053    1.8021    0.0021 H        1 ZINC000000160480    0.1000
22     H22    -0.5445    1.7859   -0.8732 H        1 ZINC000000160480    0.0600
23     H23    -0.5275    1.7763    0.9067 H        1 ZINC000000160480    0.0600
24     H24    -2.3342    1.1802    0.0211 H        1 ZINC000000160480    0.1300
25     H25    -4.5101    0.0291    0.0345 H        1 ZINC000000160480    0.1200
26     H26    -4.6033   -2.4302    0.0324 H        1 ZINC000000160480    0.1200
27     H27    -2.5221   -3.7444    0.0166 H        1 ZINC000000160480    0.1300
28     H28     0.8744   -2.1546   -0.0179 H        1 ZINC000000160480    0.0900
29     H29     0.0297   -3.0763    2.1337 H        1 ZINC000000160480    0.0800
30     H30    -0.7654   -4.3985    1.2448 H        1 ZINC000000160480    0.0700
31     H31     2.2296   -3.8105    1.3413 H        1 ZINC000000160480    0.0700
32     H32     1.3916   -5.1965    2.0858 H        1 ZINC000000160480    0.0900
33     H33     1.0089   -7.0865   -2.0050 H        1 ZINC000000160480    0.1000
34     H34     3.2122   -7.4079   -3.0323 H        1 ZINC000000160480    0.0900
35     H35     3.7840   -6.3616   -1.6614 H        1 ZINC000000160480    0.0700
36     H36     4.1721   -9.2232   -1.6945 H        1 ZINC000000160480    0.0700
37     H37     3.9699   -8.2839   -0.1524 H        1 ZINC000000160480    0.0800
38     H38     1.7062   -9.2223   -0.1913 H        1 ZINC000000160480    0.0800
39     H39     1.7482   -9.4234   -1.9965 H        1 ZINC000000160480    0.0900
40     H40     2.2017   -3.8200   -1.3932 H        1 ZINC000000160480    0.0700
41     H41     1.3489   -5.2110   -2.1108 H        1 ZINC000000160480    0.0900
42     H42    -0.7906   -4.4071   -1.2317 H        1 ZINC000000160480    0.0700
43     H43    -0.0139   -3.0912   -2.1457 H        1 ZINC000000160480    0.0800
@<TRIPOS>BOND
1     1     2     1
2     1     21    1
3     1     22    1
4     1     23    1
5     2     3     1
6     3     8     ar
7     3     4     ar
8     4     5     ar
9     4     24    1
10    5     6     ar
11    5     25    1
12    6     7     ar
13    6     26    1
14    7     8     ar
15    7     27    1
16    8     9     1
17    9     20    1
18    9     10    1
19    9     28    1
20    10    11    1
21    10    29    1
22    10    30    1
23    11    12    1
24    11    31    1
25    11    32    1
26    12    13    am
27    12    19    1
28    13    14    2
29    13    15    1
30    15    18    1
31    15    16    1
32    15    33    1
33    16    17    1
34    16    34    1
35    16    35    1
36    17    18    1
37    17    36    1
38    17    37    1
39    18    38    1
40    18    39    1
41    19    20    1
42    19    40    1
43    19    41    1
44    20    42    1
45    20    43    1
@<TRIPOS>SUBSTRUCTURE
1   ZINC000000160480 1     RESIDUE    1   A     ZIN   1
