@<TRIPOS>MOLECULE
ZINC000002644083
44    45    1     0     0
SMALL
USER_CHARGES
@<TRIPOS>ATOM
1      C1     -0.0178    1.4608    0.0101 C.3      1 ZINC000002644083    0.0600
2      N2      0.0021   -0.0041    0.0020 N.am     1 ZINC000002644083   -0.6000
3      C3      0.0224   -0.6841    1.1654 C.2      1 ZINC000002644083    0.5200
4      O4      0.0388   -1.8968    1.1588 O.2      1 ZINC000002644083   -0.5100
5      C5      0.0246    0.0623    2.4746 C.3      1 ZINC000002644083    0.0500
6      O6      0.0476   -0.8721    3.5556 O.3      1 ZINC000002644083   -0.3200
7      C7      0.0525   -0.3632    4.8050 C.2      1 ZINC000002644083    0.5000
8      O8      0.0376    0.8416    4.9710 O.2      1 ZINC000002644083   -0.5000
9      C9      0.0756   -1.2601    5.9597 C.2      1 ZINC000002644083   -0.1800
10     C10     0.0805   -0.7512    7.2092 C.2      1 ZINC000002644083   -0.0100
11     C11     0.1038   -1.6539    8.3714 C.ar     1 ZINC000002644083   -0.0800
12     C12     0.1267   -3.0395    8.1846 C.ar     1 ZINC000002644083   -0.0500
13     C13     0.1484   -3.8788    9.2787 C.ar     1 ZINC000002644083   -0.1100
14     C14     0.1476   -3.3529   10.5587 C.ar     1 ZINC000002644083   -0.0400
15     C15     0.1246   -1.9824   10.7519 C.ar     1 ZINC000002644083   -0.0400
16     N16     0.1239   -1.4304   12.1253 N.pl3    1 ZINC000002644083    0.0200
17     O17     0.1436   -2.1818   13.0836 O.2      1 ZINC000002644083   -0.1500
18     O18     0.1037   -0.2247   12.2970 O.2      1 ZINC000002644083   -0.1500
19     C19     0.1090   -1.1301    9.6683 C.ar     1 ZINC000002644083   -0.0300
20     C20    -0.0001   -0.7297   -1.2707 C.3      1 ZINC000002644083    0.1400
21     H21     0.0288   -1.8038   -1.0877 H        1 ZINC000002644083    0.1300
22     C22     1.2112   -0.3071   -2.1203 C.3      1 ZINC000002644083   -0.1300
23     C23     1.0046   -0.8129   -3.5619 C.3      1 ZINC000002644083   -0.5900
24     S24    -0.8094   -0.8880   -3.7846 S.o2     1 ZINC000002644083    2.4000
25     O25    -1.2119    0.1114   -4.7111 O.2      1 ZINC000002644083   -0.9300
26     O26    -1.2038   -2.2385   -3.9847 O.2      1 ZINC000002644083   -0.9300
27     C27    -1.2658   -0.3641   -2.0881 C.3      1 ZINC000002644083   -0.6100
28     H28     1.0048    1.8381    0.0023 H        1 ZINC000002644083    0.0700
29     H29    -0.5450    1.8219   -0.8730 H        1 ZINC000002644083    0.0800
30     H30    -0.5280    1.8123    0.9069 H        1 ZINC000002644083    0.0800
31     H31     0.9065    0.7007    2.5274 H        1 ZINC000002644083    0.1000
32     H32    -0.8732    0.6764    2.5442 H        1 ZINC000002644083    0.1000
33     H33     0.0888   -2.3299    5.8123 H        1 ZINC000002644083    0.1500
34     H34     0.0674    0.3186    7.3566 H        1 ZINC000002644083    0.1500
35     H35     0.1270   -3.4514    7.1862 H        1 ZINC000002644083    0.1500
36     H36     0.1657   -4.9492    9.1361 H        1 ZINC000002644083    0.1600
37     H37     0.1647   -4.0154   11.4116 H        1 ZINC000002644083    0.1600
38     H38     0.0914   -0.0611    9.8206 H        1 ZINC000002644083    0.1600
39     H39     1.2965    0.7796   -2.1219 H        1 ZINC000002644083    0.0900
40     H40     2.1199   -0.7434   -1.7055 H        1 ZINC000002644083    0.1000
41     H41     1.4449   -0.1155   -4.2745 H        1 ZINC000002644083    0.1500
42     H42     1.4420   -1.8041   -3.6815 H        1 ZINC000002644083    0.1400
43     H43    -2.1323   -0.9209   -1.7313 H        1 ZINC000002644083    0.1500
44     H44    -1.4524    0.7092   -2.0517 H        1 ZINC000002644083    0.1400
@<TRIPOS>BOND
1     1     2     1
2     1     28    1
3     1     29    1
4     1     30    1
5     2     3     am
6     2     20    1
7     3     4     2
8     3     5     1
9     5     6     1
10    5     31    1
11    5     32    1
12    6     7     1
13    7     8     2
14    7     9     1
15    9     10    2
16    9     33    1
17    10    11    1
18    10    34    1
19    11    19    ar
20    11    12    ar
21    12    13    ar
22    12    35    1
23    13    14    ar
24    13    36    1
25    14    15    ar
26    14    37    1
27    15    16    1
28    15    19    ar
29    16    17    2
30    16    18    2
31    19    38    1
32    20    21    1
33    20    27    1
34    20    22    1
35    22    23    1
36    22    39    1
37    22    40    1
38    23    24    1
39    23    41    1
40    23    42    1
41    24    25    2
42    24    26    2
43    24    27    1
44    27    43    1
45    27    44    1
@<TRIPOS>SUBSTRUCTURE
1   ZINC000002644083 1     RESIDUE    1   A     ZIN   1
