@<TRIPOS>MOLECULE
ZINC000001531148
17    16    1     0     0
SMALL
USER_CHARGES
@<TRIPOS>ATOM
1      C1     -0.0187    1.5258    0.0104 C.3      1 ZINC000001531148   -0.1600
2      C2      0.0021   -0.0041    0.0020 C.3      1 ZINC000001531148   -0.1200
3      C3      0.7182   -0.4975   -1.2568 C.3      1 ZINC000001531148   -0.1100
4      C4      0.7386   -2.0043   -1.2651 C.2      1 ZINC000001531148   -0.0600
5      C5      0.2493   -2.6726   -2.3116 C.2      1 ZINC000001531148   -0.2600
6      C6      0.2691   -4.1350   -2.3196 C.2      1 ZINC000001531148    0.3700
7      O7     -0.1757   -4.7425   -3.2710 O.2      1 ZINC000001531148   -0.4600
8      H8      1.0039    1.9031    0.0027 H        1 ZINC000001531148    0.0600
9      H9     -0.5459    1.8868   -0.8726 H        1 ZINC000001531148    0.0600
10     H10    -0.5289    1.8773    0.9072 H        1 ZINC000001531148    0.0600
11     H11     0.5293   -0.3651    0.8851 H        1 ZINC000001531148    0.0700
12     H12    -1.0205   -0.3814    0.0098 H        1 ZINC000001531148    0.0600
13     H13     0.1910   -0.1364   -2.1398 H        1 ZINC000001531148    0.0700
14     H14     1.7408   -0.1202   -1.2645 H        1 ZINC000001531148    0.0800
15     H15     1.1493   -2.5434   -0.4242 H        1 ZINC000001531148    0.1200
16     H16    -0.1613   -2.1335   -3.1525 H        1 ZINC000001531148    0.1300
17     H17     0.6798   -4.6741   -1.4787 H        1 ZINC000001531148    0.1000
@<TRIPOS>BOND
1     1     2     1
2     1     8     1
3     1     9     1
4     1     10    1
5     2     3     1
6     2     11    1
7     2     12    1
8     3     4     1
9     3     13    1
10    3     14    1
11    4     5     2
12    4     15    1
13    5     6     1
14    5     16    1
15    6     7     2
16    6     17    1
@<TRIPOS>SUBSTRUCTURE
1   ZINC000001531148 1     RESIDUE    1   A     ZIN   1
