@<TRIPOS>MOLECULE
ZINC000044136098
50    53    1     0     0
SMALL
USER_CHARGES
@<TRIPOS>ATOM
1      N1      0.2838    0.9596   -1.1027 N.pl3    1 ZINC000044136098   -0.8200
2      C2      0.2070   -0.4279   -1.1271 C.ar     1 ZINC000044136098    0.5200
3      N3     -0.9333   -1.0269   -0.8179 N.ar     1 ZINC000044136098   -0.5900
4      C4     -1.0479   -2.3468   -0.8291 C.ar     1 ZINC000044136098    0.4900
5      N5     -2.2632   -2.9346   -0.4979 N.pl3    1 ZINC000044136098   -0.7000
6      C6     -2.3982   -4.3933   -0.5079 C.3      1 ZINC000044136098    0.1100
7      C7     -3.8247   -4.7762   -0.1088 C.3      1 ZINC000044136098    0.1300
8      N8     -3.9598   -6.2349   -0.1187 N.pl3    1 ZINC000044136098   -0.6900
9      C9     -5.1690   -6.8197    0.2108 C.ar     1 ZINC000044136098    0.5800
10     N10    -6.1943   -6.0407    0.5274 N.ar     1 ZINC000044136098   -0.5600
11     C11    -7.3686   -6.5539    0.8491 C.ar     1 ZINC000044136098    0.2100
12     C12    -7.5253   -7.9427    0.8535 C.ar     1 ZINC000044136098   -0.1700
13     C13    -8.8200   -8.5590    1.2062 C.2      1 ZINC000044136098    0.2500
14     N14    -9.0457   -9.8465    1.3533 N.2      1 ZINC000044136098   -0.4600
15     C15   -10.3315  -10.0357    1.6733 C.2      1 ZINC000044136098   -0.0200
16     C16   -10.9374   -8.8328    1.7304 C.2      1 ZINC000044136098   -0.0400
17     N17    -9.9862   -7.8899    1.4411 N.pl3    1 ZINC000044136098   -0.5700
18     C18    -6.4127   -8.7394    0.5114 C.ar     1 ZINC000044136098    0.3000
19     C19    -6.5186  -10.2161    0.4982 C.ar     1 ZINC000044136098   -0.0300
20     C20    -7.4275  -10.8452   -0.3523 C.ar     1 ZINC000044136098   -0.0100
21     C21    -7.5221  -12.2214   -0.3606 C.ar     1 ZINC000044136098   -0.1100
22     C22    -6.7170  -12.9790    0.4733 C.ar     1 ZINC000044136098   -0.0100
23     Cl23   -6.8417  -14.7104    0.4565 Cl       1 ZINC000044136098   -0.0600
24     C24    -5.8125  -12.3610    1.3201 C.ar     1 ZINC000044136098   -0.1100
25     C25    -5.7049  -10.9846    1.3330 C.ar     1 ZINC000044136098    0.0100
26     Cl26   -4.5706  -10.2106    2.3951 Cl       1 ZINC000044136098   -0.0500
27     N27    -5.2684   -8.1398    0.1952 N.ar     1 ZINC000044136098   -0.5400
28     C28     0.0342   -3.1496   -1.1690 C.ar     1 ZINC000044136098   -0.2800
29     C29     1.2417   -2.5551   -1.4978 C.ar     1 ZINC000044136098    0.0600
30     C30     1.3261   -1.1727   -1.4812 C.ar     1 ZINC000044136098   -0.2200
31     N31     2.5965   -0.4963   -1.8261 N.pl3    1 ZINC000044136098    0.0500
32     O32     2.5799    0.5486   -2.4518 O.2      1 ZINC000044136098   -0.1900
33     O33     3.6587   -0.9845   -1.4842 O.2      1 ZINC000044136098   -0.1600
34     H34     1.1377    1.4005   -1.2346 H        1 ZINC000044136098    0.4200
35     H35    -0.5171    1.4872   -0.9578 H        1 ZINC000044136098    0.4100
36     H36    -3.0218   -2.3789   -0.2602 H        1 ZINC000044136098    0.4100
37     H37    -2.1871   -4.7709   -1.5084 H        1 ZINC000044136098    0.0800
38     H38    -1.6935   -4.8283    0.2008 H        1 ZINC000044136098    0.0800
39     H39    -4.0358   -4.3986    0.8917 H        1 ZINC000044136098    0.0800
40     H40    -4.5294   -4.3412   -0.8175 H        1 ZINC000044136098    0.0800
41     H41    -3.2011   -6.7906   -0.3565 H        1 ZINC000044136098    0.4200
42     H42    -8.1961   -5.9089    1.1054 H        1 ZINC000044136098    0.1700
43     H43   -10.8035  -10.9900    1.8547 H        1 ZINC000044136098    0.1700
44     H44   -11.9753   -8.6471    1.9642 H        1 ZINC000044136098    0.1800
45     H45   -10.1180   -6.9296    1.4045 H        1 ZINC000044136098    0.4200
46     H46    -8.0564  -10.2559   -1.0031 H        1 ZINC000044136098    0.1300
47     H47    -8.2260  -12.7091   -1.0187 H        1 ZINC000044136098    0.1400
48     H48    -5.1871  -12.9568    1.9684 H        1 ZINC000044136098    0.1400
49     H49    -0.0648   -4.2251   -1.1765 H        1 ZINC000044136098    0.1500
50     H50     2.0979   -3.1567   -1.7652 H        1 ZINC000044136098    0.1600
@<TRIPOS>BOND
1     1     2     1
2     1     34    1
3     1     35    1
4     2     30    ar
5     2     3     ar
6     3     4     ar
7     4     5     1
8     4     28    ar
9     5     6     1
10    5     36    1
11    6     7     1
12    6     37    1
13    6     38    1
14    7     8     1
15    7     39    1
16    7     40    1
17    8     9     1
18    8     41    1
19    9     27    ar
20    9     10    ar
21    10    11    ar
22    11    12    ar
23    11    42    1
24    12    13    1
25    12    18    ar
26    13    17    1
27    13    14    2
28    14    15    1
29    15    16    2
30    15    43    1
31    16    17    1
32    16    44    1
33    17    45    1
34    18    19    1
35    18    27    ar
36    19    25    ar
37    19    20    ar
38    20    21    ar
39    20    46    1
40    21    22    ar
41    21    47    1
42    22    23    1
43    22    24    ar
44    24    25    ar
45    24    48    1
46    25    26    1
47    28    29    ar
48    28    49    1
49    29    30    ar
50    29    50    1
51    30    31    1
52    31    32    2
53    31    33    2
@<TRIPOS>SUBSTRUCTURE
1   ZINC000044136098 1     RESIDUE    1   A     ZIN   1
