@<TRIPOS>MOLECULE
ZINC000002015151
37    38    1     0     0
SMALL
USER_CHARGES
@<TRIPOS>ATOM
1      C1      0.1624    1.4927    0.0023 C.3      1 ZINC000002015151   -0.1200
2      C2      0.0908   -0.0126   -0.0045 C.2      1 ZINC000002015151   -0.1200
3      C3      0.2371   -0.7797    1.2844 C.3      1 ZINC000002015151   -0.1200
4      C4     -0.0987   -0.6543   -1.1308 C.2      1 ZINC000002015151   -0.1600
5      C5     -0.1216    0.1019   -2.4341 C.3      1 ZINC000002015151   -0.1300
6      C6      0.8978   -0.5104   -3.3969 C.3      1 ZINC000002015151    0.1600
7      H7      0.6973   -1.5759   -3.5090 H        1 ZINC000002015151    0.1200
8      O8      2.2156   -0.3260   -2.8759 O.3      1 ZINC000002015151   -0.5400
9      C9      0.7894    0.1651   -4.7396 C.2      1 ZINC000002015151   -0.1500
10     C10     0.3813   -0.5372   -5.8081 C.2      1 ZINC000002015151   -0.1300
11     C11     0.2697    0.1096   -7.1305 C.2      1 ZINC000002015151    0.4200
12     O12    -0.3243   -0.4417   -8.0369 O.2      1 ZINC000002015151   -0.4100
13     C13     0.8864    1.4319   -7.3385 C.ar     1 ZINC000002015151   -0.1500
14     C14     1.0533    1.9613   -8.6172 C.ar     1 ZINC000002015151    0.1600
15     O15     0.6464    1.2602   -9.7033 O.3      1 ZINC000002015151   -0.4800
16     C16     1.6426    3.2202   -8.7733 C.ar     1 ZINC000002015151   -0.1100
17     C17     2.0556    3.9348   -7.6872 C.ar     1 ZINC000002015151   -0.1100
18     C18     1.8985    3.4237   -6.3947 C.ar     1 ZINC000002015151    0.1600
19     O19     2.3118    4.1426   -5.3229 O.3      1 ZINC000002015151   -0.4800
20     C20     1.3145    2.1706   -6.2151 C.ar     1 ZINC000002015151   -0.1500
21     C21     1.1268    1.5965   -4.8695 C.2      1 ZINC000002015151    0.4300
22     O22     1.2524    2.2927   -3.8806 O.2      1 ZINC000002015151   -0.4100
23     H23     0.2326    1.8485    1.0302 H        1 ZINC000002015151    0.0600
24     H24     1.0409    1.8171   -0.5553 H        1 ZINC000002015151    0.0700
25     H25    -0.7346    1.9012   -0.4631 H        1 ZINC000002015151    0.0600
26     H26    -0.7441   -0.9170    1.7389 H        1 ZINC000002015151    0.0700
27     H27     0.6819   -1.7535    1.0791 H        1 ZINC000002015151    0.0600
28     H28     0.8793   -0.2236    1.9673 H        1 ZINC000002015151    0.0600
29     H29    -0.2385   -1.7252   -1.1252 H        1 ZINC000002015151    0.1100
30     H30    -1.1177    0.0405   -2.8724 H        1 ZINC000002015151    0.0800
31     H31     0.1318    1.1464   -2.2527 H        1 ZINC000002015151    0.0900
32     H32     2.4627    0.6004   -2.7500 H        1 ZINC000002015151    0.3800
33     H33     0.1334   -1.5828   -5.6999 H        1 ZINC000002015151    0.1600
34     H34    -0.2677    1.4363   -9.9652 H        1 ZINC000002015151    0.4000
35     H35     1.7723    3.6304   -9.7639 H        1 ZINC000002015151    0.1500
36     H36     2.5082    4.9055   -7.8267 H        1 ZINC000002015151    0.1500
37     H37     1.6354    4.7300   -4.9588 H        1 ZINC000002015151    0.4000
@<TRIPOS>BOND
1     1     2     1
2     1     23    1
3     1     24    1
4     1     25    1
5     2     3     1
6     2     4     2
7     3     26    1
8     3     27    1
9     3     28    1
10    4     5     1
11    4     29    1
12    5     6     1
13    5     30    1
14    5     31    1
15    6     7     1
16    6     8     1
17    6     9     1
18    8     32    1
19    9     21    1
20    9     10    2
21    10    11    1
22    10    33    1
23    11    12    2
24    11    13    1
25    13    20    ar
26    13    14    ar
27    14    15    1
28    14    16    ar
29    15    34    1
30    16    17    ar
31    16    35    1
32    17    18    ar
33    17    36    1
34    18    19    1
35    18    20    ar
36    19    37    1
37    20    21    1
38    21    22    2
@<TRIPOS>SUBSTRUCTURE
1   ZINC000002015151 1     RESIDUE    1   A     ZIN   1
