@<TRIPOS>MOLECULE
ZINC000003954176
  42   45    0    0    0
SMALL
NO_CHARGES
@<TRIPOS>ATOM
   1 O1             0.0021    -0.0041     0.0020 O.2     
   2 C2            -0.0145     1.2152     0.0087 C.2     
   3 C3            -1.2776     1.9874     0.0312 C.2     
   4 N4            -2.3444     1.5582     0.6891 N.2     
   5 N5            -2.2993     0.4408     1.3322 N.pl3   
   6 C6            -3.4209    -0.0105     2.0239 C.ar    
   7 C7            -3.3635    -1.2033     2.7137 C.ar    
   8 C8            -4.4964    -1.6545     3.4096 C.ar    
   9 C9            -4.4772    -2.8646     4.1248 C.ar    
  10 C10           -5.5934    -3.2723     4.7889 C.ar    
  11 C11           -6.7577    -2.5073     4.7710 C.ar    
  12 S12           -8.1800    -3.0716     5.6447 S.o2    
  13 O13           -9.3405    -2.5662     4.9277 O.co2   
  14 O14           -8.1258    -4.5252     5.6400 O.co2   
  15 O15           -8.0895    -2.5262     6.9902 O.co2   
  16 C16           -6.8130    -1.3301     4.0891 C.ar    
  17 C17           -5.6814    -0.8760     3.3916 C.ar    
  18 C18           -5.7056     0.3352     2.6771 C.ar    
  19 C19           -4.5950     0.7548     2.0167 C.ar    
  20 C20           -1.2873     3.2555    -0.7136 C.2     
  21 C21           -0.1202     3.8944    -0.9492 C.2     
  22 S22           -0.1309     5.4161    -1.8375 S.o2    
  23 O23            0.8648     5.2938    -2.8909 O.co2   
  24 O24           -1.4738     5.5803    -2.3721 O.co2   
  25 O25            0.2086     6.4608    -0.8839 O.co2   
  26 C26            1.1484     3.3473    -0.4809 C.ar    
  27 C27            2.3182     4.1240    -0.4939 C.ar    
  28 C28            3.4793     3.5533    -0.0447 C.ar    
  29 C29            3.4775     2.2387     0.4075 C.ar    
  30 N30            2.3776     1.5187     0.4172 N.ar    
  31 C31            1.2243     2.0196     0.0012 C.ar    
  32 H32           -1.4842    -0.0852     1.3340 H       
  33 H33           -2.4542    -1.7860     2.7183 H       
  34 H34           -3.5817    -3.4678     4.1470 H       
  35 H35           -5.5762    -4.2025     5.3374 H       
  36 H36           -7.7229    -0.7483     4.0842 H       
  37 H37           -6.6042     0.9341     2.6584 H       
  38 H38           -4.6203     1.6860     1.4703 H       
  39 H39           -2.2183     3.6722    -1.0686 H       
  40 H40            2.3026     5.1441    -0.8481 H       
  41 H41            4.3960     4.1242    -0.0421 H       
  42 H42            4.3997     1.7994     0.7581 H       
@<TRIPOS>BOND
   1    1    2 2
   2    2   31 1
   3    2    3 1
   4    3    4 2
   5    3   20 1
   6    4    5 1
   7    5    6 1
   8    5   32 1
   9    6   19 ar
  10    6    7 ar
  11    7    8 ar
  12    7   33 1
  13    8   17 ar
  14    8    9 ar
  15    9   10 ar
  16    9   34 1
  17   10   11 ar
  18   10   35 1
  19   11   12 1
  20   11   16 ar
  21   12   13 ar
  22   12   14 ar
  23   12   15 ar
  24   16   17 ar
  25   16   36 1
  26   17   18 ar
  27   18   19 ar
  28   18   37 1
  29   19   38 1
  30   20   21 2
  31   20   39 1
  32   21   22 1
  33   21   26 1
  34   22   23 ar
  35   22   24 ar
  36   22   25 ar
  37   26   31 ar
  38   26   27 ar
  39   27   28 ar
  40   27   40 1
  41   28   29 ar
  42   28   41 1
  43   29   30 ar
  44   29   42 1
  45   30   31 ar
