@<TRIPOS>MOLECULE
ZINC000039716290
96    101   1     0     0
SMALL
USER_CHARGES
@<TRIPOS>ATOM
1      C1     -0.6349    1.9076   -1.9738 C.3      1 ZINC000039716290   -0.1500
2      C2     -1.0311    1.6129   -0.5257 C.3      1 ZINC000039716290   -0.1500
3      C3     -0.1043    0.5393    0.0483 C.3      1 ZINC000039716290    0.0700
4      H4      0.9276    0.8857   -0.0081 H        1 ZINC000039716290    0.1400
5      C5     -0.2502   -0.7274   -0.7552 C.2      1 ZINC000039716290    0.5300
6      O6      0.5312   -0.9794   -1.6482 O.2      1 ZINC000039716290   -0.5000
7      N7     -1.2598   -1.5797   -0.4720 N.am     1 ZINC000039716290   -0.5400
8      C8     -1.5056   -2.7546   -1.3118 C.3      1 ZINC000039716290    0.0700
9      C9     -2.0666   -1.3149    0.6438 C.ar     1 ZINC000039716290   -0.0200
10     C10    -3.2614   -1.9834    0.8365 C.ar     1 ZINC000039716290    0.1700
11     N11    -3.9980   -1.6841    1.8995 N.ar     1 ZINC000039716290   -0.5500
12     C12    -3.6034   -0.7619    2.7633 C.ar     1 ZINC000039716290    0.5600
13     N13    -4.4094   -0.4745    3.8550 N.pl3    1 ZINC000039716290   -0.6200
14     C14    -5.5538   -1.2337    4.0957 C.ar     1 ZINC000039716290    0.1800
15     C15    -5.6346   -2.5371    3.6196 C.ar     1 ZINC000039716290   -0.1100
16     C16    -6.7636   -3.2905    3.8549 C.ar     1 ZINC000039716290   -0.1000
17     C17    -7.8305   -2.7454    4.5736 C.ar     1 ZINC000039716290   -0.1300
18     C18    -9.0399   -3.5519    4.8264 C.2      1 ZINC000039716290    0.5600
19     O19    -9.9678   -3.0765    5.4521 O.2      1 ZINC000039716290   -0.5300
20     N20    -9.1161   -4.8155    4.3639 N.am     1 ZINC000039716290   -0.7200
21     C21   -10.3170   -5.6162    4.6149 C.3      1 ZINC000039716290    0.1400
22     C22   -11.3641   -5.3156    3.5406 C.3      1 ZINC000039716290   -0.1300
23     C23   -10.7967   -5.6652    2.1634 C.3      1 ZINC000039716290   -0.1200
24     C24   -10.4363   -7.1516    2.1226 C.3      1 ZINC000039716290    0.0900
25     N25    -9.8916   -7.4872    0.8002 N.3      1 ZINC000039716290   -0.5300
26     C26   -10.7225   -6.9200   -0.2712 C.3      1 ZINC000039716290    0.0200
27     C27   -10.0900   -7.2407   -1.6272 C.3      1 ZINC000039716290    0.0000
28     N28    -9.9834   -8.6971   -1.7857 N.4      1 ZINC000039716290   -0.3800
29     H29   -10.9022   -9.1098   -1.7262 H        1 ZINC000039716290    0.4200
30     C30    -9.3925   -9.0049   -3.0949 C.3      1 ZINC000039716290    0.0300
31     C31    -9.3958  -10.5193   -3.3126 C.3      1 ZINC000039716290   -0.2200
32     C32   -10.2387  -11.0653   -4.4668 C.3      1 ZINC000039716290   -0.1700
33     C33    -8.7125  -11.0533   -4.5731 C.3      1 ZINC000039716290   -0.1500
34     C34    -9.1307   -9.2459   -0.7231 C.3      1 ZINC000039716290    0.0000
35     C35    -9.7553   -8.9418    0.6404 C.3      1 ZINC000039716290    0.0200
36     C36    -9.3892   -7.4521    3.1968 C.3      1 ZINC000039716290   -0.1100
37     C37    -9.9565   -7.1026    4.5740 C.3      1 ZINC000039716290   -0.1300
38     C38    -7.7500   -1.4345    5.0534 C.ar     1 ZINC000039716290   -0.1200
39     C39    -6.6145   -0.6854    4.8196 C.ar     1 ZINC000039716290    0.0900
40     O40    -6.5329    0.5898    5.2853 O.3      1 ZINC000039716290   -0.3200
41     C41    -7.6596    1.0897    6.0084 C.3      1 ZINC000039716290    0.0300
42     N42    -2.4614   -0.1050    2.6172 N.ar     1 ZINC000039716290   -0.5500
43     C43    -1.6678   -0.3572    1.5826 C.ar     1 ZINC000039716290    0.3900
44     N44    -0.4573    0.2917    1.4490 N.3      1 ZINC000039716290   -0.4600
45     C45    -0.4420    1.5414    2.2209 C.3      1 ZINC000039716290    0.0900
46     C46    -0.3837    1.2174    3.7150 C.3      1 ZINC000039716290   -0.1500
47     C47     0.7851    2.3674    1.8299 C.3      1 ZINC000039716290   -0.1700
48     H48    -0.6392    0.9808   -2.5475 H        1 ZINC000039716290    0.0600
49     H49    -1.3470    2.6082   -2.4099 H        1 ZINC000039716290    0.0700
50     H50     0.3637    2.3439   -1.9956 H        1 ZINC000039716290    0.0700
51     H51    -0.9437    2.5232    0.0674 H        1 ZINC000039716290    0.0900
52     H52    -2.0611    1.2574   -0.4959 H        1 ZINC000039716290    0.0700
53     H53    -0.7758   -2.7820   -2.1210 H        1 ZINC000039716290    0.1000
54     H54    -1.4135   -3.6579   -0.7088 H        1 ZINC000039716290    0.0700
55     H55    -2.5104   -2.6981   -1.7305 H        1 ZINC000039716290    0.0700
56     H56    -3.5898   -2.7355    0.1344 H        1 ZINC000039716290    0.1800
57     H57    -4.1769    0.2547    4.4509 H        1 ZINC000039716290    0.4300
58     H58    -4.8107   -2.9599    3.0638 H        1 ZINC000039716290    0.1600
59     H59    -6.8242   -4.3028    3.4833 H        1 ZINC000039716290    0.1300
60     H60    -8.3759   -5.1947    3.8647 H        1 ZINC000039716290    0.4000
61     H61   -10.7212   -5.3672    5.5961 H        1 ZINC000039716290    0.1000
62     H62   -12.2576   -5.9114    3.7274 H        1 ZINC000039716290    0.0700
63     H63   -11.6209   -4.2567    3.5697 H        1 ZINC000039716290    0.0800
64     H64   -11.5428   -5.4510    1.3981 H        1 ZINC000039716290    0.0700
65     H65    -9.9033   -5.0694    1.9766 H        1 ZINC000039716290    0.0800
66     H66   -11.3298   -7.7473    2.3093 H        1 ZINC000039716290    0.0600
67     H67   -11.7217   -7.3530   -0.2244 H        1 ZINC000039716290    0.0600
68     H68   -10.7881   -5.8390   -0.1470 H        1 ZINC000039716290    0.1300
69     H69   -10.7123   -6.8331   -2.4239 H        1 ZINC000039716290    0.1300
70     H70    -9.0962   -6.7959   -1.6788 H        1 ZINC000039716290    0.1400
71     H71    -9.9767   -8.5238   -3.8794 H        1 ZINC000039716290    0.1300
72     H72    -8.3675   -8.6354   -3.1268 H        1 ZINC000039716290    0.1300
73     H73    -9.3277  -11.1243   -2.4085 H        1 ZINC000039716290    0.1200
74     H74   -10.7256  -12.0297   -4.3222 H        1 ZINC000039716290    0.1100
75     H75   -10.7910  -10.3456   -5.0711 H        1 ZINC000039716290    0.1100
76     H76    -8.2606  -10.3257   -5.2473 H        1 ZINC000039716290    0.1100
77     H77    -8.1952  -12.0099   -4.4984 H        1 ZINC000039716290    0.1100
78     H78    -9.0418  -10.3249   -0.8495 H        1 ZINC000039716290    0.1300
79     H79    -8.1419   -8.7908   -0.7794 H        1 ZINC000039716290    0.1400
80     H80    -9.1151   -9.3360    1.4297 H        1 ZINC000039716290    0.1200
81     H81   -10.7385   -9.4082    0.7022 H        1 ZINC000039716290    0.0600
82     H82    -9.1324   -8.5111    3.1677 H        1 ZINC000039716290    0.0700
83     H83    -8.4957   -6.8564    3.0100 H        1 ZINC000039716290    0.0700
84     H84    -9.2105   -7.3167    5.3394 H        1 ZINC000039716290    0.0800
85     H85   -10.8500   -7.6984    4.7608 H        1 ZINC000039716290    0.0800
86     H86    -8.5730   -1.0103    5.6094 H        1 ZINC000039716290    0.1500
87     H87    -8.5413    1.0676    5.3679 H        1 ZINC000039716290    0.0600
88     H88    -7.8328    0.4677    6.8866 H        1 ZINC000039716290    0.0600
89     H89    -7.4641    2.1150    6.3222 H        1 ZINC000039716290    0.1100
90     H90    -1.3464    2.1112    2.0077 H        1 ZINC000039716290    0.0700
91     H91     0.5615    0.7248    3.9433 H        1 ZINC000039716290    0.0600
92     H92    -0.4608    2.1400    4.2902 H        1 ZINC000039716290    0.0600
93     H93    -1.2102    0.5564    3.9760 H        1 ZINC000039716290    0.0900
94     H94     0.6986    2.6757    0.7880 H        1 ZINC000039716290    0.0600
95     H95     0.8466    3.2503    2.4661 H        1 ZINC000039716290    0.0800
96     H96     1.6843    1.7646    1.9570 H        1 ZINC000039716290    0.0700
@<TRIPOS>BOND
1     1     2     1
2     1     48    1
3     1     49    1
4     1     50    1
5     2     3     1
6     2     51    1
7     2     52    1
8     3     4     1
9     3     44    1
10    3     5     1
11    5     6     2
12    5     7     am
13    7     8     1
14    7     9     1
15    8     53    1
16    8     54    1
17    8     55    1
18    9     43    ar
19    9     10    ar
20    10    11    ar
21    10    56    1
22    11    12    ar
23    12    13    1
24    12    42    ar
25    13    14    1
26    13    57    1
27    14    39    ar
28    14    15    ar
29    15    16    ar
30    15    58    1
31    16    17    ar
32    16    59    1
33    17    18    1
34    17    38    ar
35    18    19    2
36    18    20    am
37    20    21    1
38    20    60    1
39    21    37    1
40    21    22    1
41    21    61    1
42    22    23    1
43    22    62    1
44    22    63    1
45    23    24    1
46    23    64    1
47    23    65    1
48    24    25    1
49    24    36    1
50    24    66    1
51    25    35    1
52    25    26    1
53    26    27    1
54    26    67    1
55    26    68    1
56    27    28    1
57    27    69    1
58    27    70    1
59    28    29    1
60    28    30    1
61    28    34    1
62    30    31    1
63    30    71    1
64    30    72    1
65    31    33    1
66    31    32    1
67    31    73    1
68    32    33    1
69    32    74    1
70    32    75    1
71    33    76    1
72    33    77    1
73    34    35    1
74    34    78    1
75    34    79    1
76    35    80    1
77    35    81    1
78    36    37    1
79    36    82    1
80    36    83    1
81    37    84    1
82    37    85    1
83    38    39    ar
84    38    86    1
85    39    40    1
86    40    41    1
87    41    87    1
88    41    88    1
89    41    89    1
90    42    43    ar
91    43    44    1
92    44    45    1
93    45    46    1
94    45    47    1
95    45    90    1
96    46    91    1
97    46    92    1
98    46    93    1
99    47    94    1
100   47    95    1
101   47    96    1
@<TRIPOS>SUBSTRUCTURE
1   ZINC000039716290 1     RESIDUE    1   A     ZIN   1
