@<TRIPOS>MOLECULE
ZINC000009691573
  35   38    0    0    0
SMALL
USER_CHARGES
NO_NAME
@<TRIPOS>ATOM
    1 C1       -0.0167     1.3790     0.0096 C.ar   1 <0>      -0.1000
    2 C2        1.1687     2.0918     0.0021 C.ar   1 <0>      -0.1200
    3 C3        2.3774     1.4257    -0.0135 C.ar   1 <0>      -0.0800
    4 C4        2.4021     0.0327    -0.0212 C.ar   1 <0>      -0.0300
    5 C5        3.6989    -0.6892    -0.0375 C.2    1 <0>       0.2200
    6 N6        4.8889    -0.1472    -0.0402 N.2    1 <0>      -0.3600
    7 O7        5.7402    -1.0110    -0.0544 O.3    1 <0>       0.1000
    8 C8        5.1671    -2.2185    -0.0624 C.2    1 <0>       0.1800
    9 C9        5.8785    -3.5469    -0.0802 C.3    1 <0>      -0.0400
   10 S10       6.1511    -4.0624    -1.7937 S.3    1 <0>       0.1300
   11 C11       6.9736    -5.5972    -1.5243 C.2    1 <0>       0.1300
   12 N12       7.2568    -6.1338    -0.3585 N.2    1 <0>      -0.2800
   13 N13       7.8592    -7.2561    -0.5393 N.2    1 <0>      -0.2500
   14 C14       7.9849    -7.4811    -1.8246 C.2    1 <0>       0.2100
   15 C15       8.6196    -8.6602    -2.4477 C.ar   1 <0>       0.0200
   16 C16       8.6975    -8.7840    -3.8407 C.ar   1 <0>      -0.1400
   17 C17       9.2991    -9.9015    -4.3796 C.ar   1 <0>       0.1100
   18 N18       9.7962   -10.8452    -3.6024 N.ar   1 <0>      -0.4700
   19 C19       9.7440   -10.7684    -2.2860 C.ar   1 <0>       0.1100
   20 C20       9.1656    -9.6833    -1.6621 C.ar   1 <0>      -0.1200
   21 O21       7.4222    -6.4383    -2.4749 O.3    1 <0>      -0.1900
   22 N22       3.8710    -2.0303    -0.0464 N.2    1 <0>      -0.4400
   23 C23       1.2052    -0.6804    -0.0131 C.ar   1 <0>      -0.0700
   24 C24       0.0021    -0.0041     0.0020 C.ar   1 <0>      -0.1200
   25 H25      -0.9602     1.9042     0.0260 H      1 <0>       0.1300
   26 H26       1.1484     3.1716     0.0081 H      1 <0>       0.1300
   27 H27       3.3023     1.9832    -0.0200 H      1 <0>       0.1300
   28 H28       6.8382    -3.4520     0.4277 H      1 <0>       0.1500
   29 H29       5.2691    -4.2923     0.4308 H      1 <0>       0.1500
   30 H30       8.2922    -8.0160    -4.4829 H      1 <0>       0.1500
   31 H31       9.3641   -10.0062    -5.4526 H      1 <0>       0.1700
   32 H32      10.1639   -11.5646    -1.6891 H      1 <0>       0.1700
   33 H33       9.1268    -9.6270    -0.5843 H      1 <0>       0.1500
   34 H34       1.2187    -1.7602    -0.0194 H      1 <0>       0.1400
   35 H35      -0.9264    -0.5558     0.0083 H      1 <0>       0.1300
@<TRIPOS>BOND
   1    1   24 ar
   2    1    2 ar
   3    1   25 1
   4    2    3 ar
   5    2   26 1
   6    3    4 ar
   7    3   27 1
   8    4    5 1
   9    4   23 ar
  10    5   22 1
  11    5    6 2
  12    6    7 1
  13    7    8 1
  14    8    9 1
  15    8   22 2
  16    9   10 1
  17    9   28 1
  18    9   29 1
  19   10   11 1
  20   11   21 1
  21   11   12 2
  22   12   13 1
  23   13   14 2
  24   14   15 1
  25   14   21 1
  26   15   20 ar
  27   15   16 ar
  28   16   17 ar
  29   16   30 1
  30   17   18 ar
  31   17   31 1
  32   18   19 ar
  33   19   20 ar
  34   19   32 1
  35   20   33 1
  36   23   24 ar
  37   23   34 1
  38   24   35 1
