@<TRIPOS>MOLECULE
ZINC000000001083
  37   38    0    0    0
SMALL
USER_CHARGES
NO_NAME
@<TRIPOS>ATOM
    1 O1        0.0021    -0.0041     0.0020 O.2    1 <0>      -0.5100
    2 C2       -0.0144     1.2123     0.0087 C.2    1 <0>       0.5000
    3 C3        1.2036     1.9378     0.0010 C.2    1 <0>      -0.2100
    4 C4        2.3826     1.2783    -0.0138 C.2    1 <0>       0.0100
    5 C5        3.6451     2.0303    -0.0218 C.ar   1 <0>      -0.0800
    6 C6        3.6286     3.4296    -0.0084 C.ar   1 <0>      -0.0800
    7 C7        4.8138     4.1321    -0.0160 C.ar   1 <0>      -0.1300
    8 C8        6.0259     3.4556    -0.0370 C.ar   1 <0>       0.1000
    9 O9        7.1909     4.1537    -0.0444 O.3    1 <0>      -0.4900
   10 C10       6.0508     2.0610    -0.0500 C.ar   1 <0>       0.0800
   11 O11       7.2406     1.4025    -0.0701 O.3    1 <0>      -0.4900
   12 C12       4.8683     1.3489    -0.0372 C.ar   1 <0>      -0.1000
   13 O13      -1.1920     1.8710     0.0179 O.3    1 <0>      -0.3500
   14 C14      -2.3798     1.0765     0.0192 C.3    1 <0>       0.0700
   15 C15      -3.6057     1.9919     0.0300 C.3    1 <0>      -0.0800
   16 C16      -4.8583     1.1541     0.0314 C.ar   1 <0>      -0.0900
   17 C17      -5.4353     0.7715    -1.1652 C.ar   1 <0>      -0.1100
   18 C18      -6.5843     0.0030    -1.1639 C.ar   1 <0>      -0.1200
   19 C19      -7.1560    -0.3834     0.0339 C.ar   1 <0>      -0.1200
   20 C20      -6.5785    -0.0017     1.2304 C.ar   1 <0>      -0.1200
   21 C21      -5.4271     0.7633     1.2291 C.ar   1 <0>      -0.1100
   22 H22       1.1890     3.0177     0.0069 H      1 <0>       0.1400
   23 H23       2.3973     0.1984    -0.0198 H      1 <0>       0.1400
   24 H24       2.6871     3.9585     0.0076 H      1 <0>       0.1400
   25 H25       4.7998     5.2120    -0.0060 H      1 <0>       0.1400
   26 H26       7.5389     4.3474     0.8368 H      1 <0>       0.3900
   27 H27       7.5951     1.2040     0.8073 H      1 <0>       0.3900
   28 H28       4.8863     0.2691    -0.0473 H      1 <0>       0.1400
   29 H29      -2.4003     0.4522    -0.8741 H      1 <0>       0.0700
   30 H30      -2.3919     0.4426     0.9058 H      1 <0>       0.0700
   31 H31      -3.5851     2.6162     0.9233 H      1 <0>       0.0900
   32 H32      -3.5935     2.6258    -0.8566 H      1 <0>       0.0900
   33 H33      -4.9886     1.0735    -2.1010 H      1 <0>       0.1200
   34 H34      -7.0355    -0.2953    -2.0987 H      1 <0>       0.1200
   35 H35      -8.0541    -0.9833     0.0349 H      1 <0>       0.1200
   36 H36      -7.0254    -0.3033     2.1662 H      1 <0>       0.1200
   37 H37      -4.9759     1.0615     2.1639 H      1 <0>       0.1200
@<TRIPOS>BOND
   1    1    2 2
   2    2    3 1
   3    2   13 1
   4    3    4 2
   5    3   22 1
   6    4    5 1
   7    4   23 1
   8    5   12 ar
   9    5    6 ar
  10    6    7 ar
  11    6   24 1
  12    7    8 ar
  13    7   25 1
  14    8    9 1
  15    8   10 ar
  16    9   26 1
  17   10   11 1
  18   10   12 ar
  19   11   27 1
  20   12   28 1
  21   13   14 1
  22   14   15 1
  23   14   29 1
  24   14   30 1
  25   15   16 1
  26   15   31 1
  27   15   32 1
  28   16   21 ar
  29   16   17 ar
  30   17   18 ar
  31   17   33 1
  32   18   19 ar
  33   18   34 1
  34   19   20 ar
  35   19   35 1
  36   20   21 ar
  37   20   36 1
  38   21   37 1
