@<TRIPOS>MOLECULE
ZINC000019803135
29    31    1     0     0
SMALL
USER_CHARGES
@<TRIPOS>ATOM
1      O1      0.0022   -0.0040    0.0191 O.co2    1 ZINC000019803135   -0.6700
2      C2     -0.0145    1.2186    0.0087 C.2      1 ZINC000019803135    0.5300
3      O3      1.0359    1.8443   -0.0150 O.co2    1 ZINC000019803135   -0.6700
4      C4     -1.3030    1.9394    0.0188 C.ar     1 ZINC000019803135   -0.0600
5      C5     -1.3590    3.3976    0.1297 C.ar     1 ZINC000019803135   -0.0800
6      C6     -0.1961    4.1685    0.2307 C.ar     1 ZINC000019803135   -0.0700
7      C7     -0.2936    5.5247    0.3319 C.ar     1 ZINC000019803135   -0.1500
8      C8     -1.5373    6.1528    0.3360 C.ar     1 ZINC000019803135   -0.1000
9      C9     -2.6883    5.4334    0.2394 C.ar     1 ZINC000019803135   -0.1100
10     C10    -2.6278    4.0310    0.1333 C.ar     1 ZINC000019803135    0.1200
11     N11    -3.7385    3.2997    0.0367 N.ar     1 ZINC000019803135   -0.4800
12     C12    -3.7117    1.9878   -0.0640 C.ar     1 ZINC000019803135    0.1900
13     C13    -4.9949    1.2518   -0.1672 C.ar     1 ZINC000019803135   -0.0100
14     C14    -4.9975   -0.1383   -0.2693 C.ar     1 ZINC000019803135   -0.1100
15     C15    -6.1942   -0.8194   -0.3652 C.ar     1 ZINC000019803135   -0.0900
16     C16    -7.3905   -0.1259   -0.3607 C.ar     1 ZINC000019803135   -0.1500
17     C17    -7.3953    1.2562   -0.2595 C.ar     1 ZINC000019803135    0.0900
18     F18    -8.5672    1.9283   -0.2552 F        1 ZINC000019803135   -0.1400
19     C19    -6.2028    1.9473   -0.1568 C.ar     1 ZINC000019803135   -0.1200
20     C20    -2.5112    1.2615   -0.0826 C.ar     1 ZINC000019803135   -0.1500
21     H21     0.7732    3.6922    0.2289 H        1 ZINC000019803135    0.1700
22     H22     0.6044    6.1195    0.4102 H        1 ZINC000019803135    0.1200
23     H23    -1.5888    7.2285    0.4176 H        1 ZINC000019803135    0.1200
24     H24    -3.6442    5.9361    0.2445 H        1 ZINC000019803135    0.1300
25     H25    -4.0642   -0.6818   -0.2737 H        1 ZINC000019803135    0.1400
26     H26    -6.1963   -1.8965   -0.4442 H        1 ZINC000019803135    0.1400
27     H27    -8.3243   -0.6631   -0.4367 H        1 ZINC000019803135    0.1300
28     H28    -6.2065    3.0244   -0.0775 H        1 ZINC000019803135    0.1500
29     H29    -2.5267    0.1849   -0.1667 H        1 ZINC000019803135    0.1500
@<TRIPOS>BOND
1     1     2     ar
2     2     3     ar
3     2     4     1
4     4     20    ar
5     4     5     ar
6     5     10    ar
7     5     6     ar
8     6     7     ar
9     6     21    1
10    7     8     ar
11    7     22    1
12    8     9     ar
13    8     23    1
14    9     10    ar
15    9     24    1
16    10    11    ar
17    11    12    ar
18    12    13    1
19    12    20    ar
20    13    19    ar
21    13    14    ar
22    14    15    ar
23    14    25    1
24    15    16    ar
25    15    26    1
26    16    17    ar
27    16    27    1
28    17    18    1
29    17    19    ar
30    19    28    1
31    20    29    1
@<TRIPOS>SUBSTRUCTURE
1   ZINC000019803135 1     RESIDUE    1   A     ZIN   1
