@<TRIPOS>MOLECULE
ZINC000072138201
  43   46    0    0    0
SMALL
USER_CHARGES
NO_NAME
@<TRIPOS>ATOM
    1 O1        0.0021    -0.0041     0.0020 O.2    1 <0>      -0.5100
    2 C2       -0.0144     1.2130     0.0087 C.2    1 <0>       0.5500
    3 C3       -1.2818     1.9582     0.0310 C.ar   1 <0>      -0.2000
    4 C4       -2.5139     1.3086     0.0455 C.ar   1 <0>      -0.0400
    5 C5       -3.6745     2.0517     0.0666 C.ar   1 <0>      -0.1400
    6 C6       -3.6252     3.4396     0.0737 C.ar   1 <0>      -0.0700
    7 C7       -2.4192     4.1025     0.0597 C.ar   1 <0>      -0.1100
    8 C8       -1.2270     3.3716     0.0382 C.ar   1 <0>       0.1600
    9 N9       -0.0277     3.9836     0.0245 N.2    1 <0>      -0.5200
   10 C10       1.0937     3.3016     0.0047 C.2    1 <0>       0.4400
   11 C11       2.3598     4.0377    -0.0087 C.2    1 <0>      -0.1600
   12 C12       2.3559     5.3853    -0.0006 C.2    1 <0>       0.0000
   13 C13       3.6286     6.1253    -0.0141 C.ar   1 <0>      -0.1300
   14 C14       3.6389     7.5273    -0.0000 C.ar   1 <0>      -0.0500
   15 C15       4.8619     8.1736    -0.0137 C.ar   1 <0>      -0.1700
   16 C16       6.0244     7.4240    -0.0405 C.ar   1 <0>       0.1100
   17 N17       5.9857     6.1050    -0.0532 N.ar   1 <0>      -0.4800
   18 C18       4.8485     5.4422    -0.0353 C.ar   1 <0>       0.1200
   19 N19       1.1331     1.9304     0.0016 N.am   1 <0>      -0.5400
   20 C20       2.4244     1.2388    -0.0211 C.3    1 <0>       0.1300
   21 C21       2.8908     0.9992     1.3917 C.ar   1 <0>      -0.1200
   22 C22       3.6651     1.9474     2.0339 C.ar   1 <0>      -0.0900
   23 C23       4.0932     1.7282     3.3297 C.ar   1 <0>      -0.1100
   24 C24       3.7466     0.5595     3.9840 C.ar   1 <0>      -0.0200
   25 Cl25      4.2834     0.2837     5.6117 Cl     1 <0>      -0.0600
   26 C26       2.9716    -0.3891     3.3408 C.ar   1 <0>      -0.1100
   27 C27       2.5394    -0.1662     2.0470 C.ar   1 <0>      -0.0800
   28 H28      -2.5595     0.2295     0.0397 H      1 <0>       0.1400
   29 H29      -4.6309     1.5501     0.0775 H      1 <0>       0.1300
   30 H30      -4.5448     4.0057     0.0899 H      1 <0>       0.1400
   31 H31      -2.3935     5.1822     0.0650 H      1 <0>       0.1400
   32 H32       3.2966     3.5006    -0.0251 H      1 <0>       0.1400
   33 H33       1.4191     5.9225     0.0158 H      1 <0>       0.1500
   34 H34       2.7161     8.0880     0.0206 H      1 <0>       0.1400
   35 H35       4.9087     9.2526    -0.0038 H      1 <0>       0.1400
   36 H36       6.9800     7.9271    -0.0515 H      1 <0>       0.1600
   37 H37       4.8577     4.3623    -0.0466 H      1 <0>       0.1600
   38 H38       2.3160     0.2837    -0.5349 H      1 <0>       0.1100
   39 H39       3.1562     1.8528    -0.5461 H      1 <0>       0.1100
   40 H40       3.9359     2.8595     1.5229 H      1 <0>       0.1300
   41 H41       4.6984     2.4689     3.8311 H      1 <0>       0.1400
   42 H42       2.7010    -1.3017     3.8510 H      1 <0>       0.1400
   43 H43       1.9342    -0.9065     1.5449 H      1 <0>       0.1400
@<TRIPOS>BOND
   1    1    2 2
   2    2   19 am
   3    2    3 1
   4    3    8 ar
   5    3    4 ar
   6    4    5 ar
   7    4   28 1
   8    5    6 ar
   9    5   29 1
  10    6    7 ar
  11    6   30 1
  12    7    8 ar
  13    7   31 1
  14    8    9 1
  15    9   10 2
  16   10   11 1
  17   10   19 1
  18   11   12 2
  19   11   32 1
  20   12   13 1
  21   12   33 1
  22   13   18 ar
  23   13   14 ar
  24   14   15 ar
  25   14   34 1
  26   15   16 ar
  27   15   35 1
  28   16   17 ar
  29   16   36 1
  30   17   18 ar
  31   18   37 1
  32   19   20 1
  33   20   21 1
  34   20   38 1
  35   20   39 1
  36   21   27 ar
  37   21   22 ar
  38   22   23 ar
  39   22   40 1
  40   23   24 ar
  41   23   41 1
  42   24   25 1
  43   24   26 ar
  44   26   27 ar
  45   26   42 1
  46   27   43 1
