@<TRIPOS>MOLECULE
ZINC000049844830
62    65    1     0     0
SMALL
USER_CHARGES
@<TRIPOS>ATOM
1      C1     -0.0187    1.5258    0.0104 C.3      1 ZINC000049844830   -0.1400
2      C2      0.0021   -0.0041    0.0020 C.3      1 ZINC000049844830    0.0900
3      C3     -1.4239   -0.5583   -0.0167 C.3      1 ZINC000049844830   -0.1300
4      C4      0.8019   -0.5255   -1.2028 C.3      1 ZINC000049844830    0.0900
5      N5      1.9198   -1.2863   -0.5842 N.pl3    1 ZINC000049844830   -0.5800
6      C6      3.0094   -2.0138   -1.0224 C.2      1 ZINC000049844830    0.1100
7      C7      3.2809   -2.1755   -2.4959 C.3      1 ZINC000049844830   -0.1000
8      S8      2.1112   -3.3651   -3.1980 S.3      1 ZINC000049844830    0.0900
9      C9      2.6415   -3.3604   -4.8783 C.cat    1 ZINC000049844830    0.4500
10     N10     3.6935   -2.5628   -5.2653 N.pl3    1 ZINC000049844830   -0.6800
11     C11     4.1344   -2.5589   -6.6624 C.3      1 ZINC000049844830    0.1200
12     C12     3.2826   -1.5720   -7.4632 C.3      1 ZINC000049844830   -0.1400
13     C13     3.7431   -1.5679   -8.9223 C.3      1 ZINC000049844830   -0.1200
14     C14     5.2124   -1.1471   -8.9922 C.3      1 ZINC000049844830   -0.1300
15     C15     6.0642   -2.1341   -8.1914 C.3      1 ZINC000049844830   -0.1200
16     C16     5.6037   -2.1382   -6.7323 C.3      1 ZINC000049844830   -0.1300
17     N17     2.0366   -4.1130   -5.7551 N.pl3    1 ZINC000049844830   -0.6000
18     H18     2.3286   -4.1104   -6.6801 H        1 ZINC000049844830    0.4300
19     C19     0.9164   -4.9622   -5.3429 C.3      1 ZINC000049844830    0.1100
20     C20    -0.3779   -4.1467   -5.3675 C.3      1 ZINC000049844830   -0.1400
21     C21    -1.5479   -5.0336   -4.9370 C.3      1 ZINC000049844830   -0.1200
22     C22    -1.6721   -6.2165   -5.8994 C.3      1 ZINC000049844830   -0.1300
23     C23    -0.3779   -7.0321   -5.8748 C.3      1 ZINC000049844830   -0.1200
24     C24     0.7921   -6.1452   -6.3053 C.3      1 ZINC000049844830   -0.1300
25     C25     3.8065   -2.5630   -0.1306 C.2      1 ZINC000049844830   -0.2100
26     S26     3.1322   -2.1310    1.4489 S.3      1 ZINC000049844830    0.1500
27     C27     1.7731   -1.2065    0.7709 C.2      1 ZINC000049844830    0.3000
28     N28     0.7365   -0.5144    1.1634 N.2      1 ZINC000049844830   -0.4900
29     H29     1.0039    1.9031    0.0027 H        1 ZINC000049844830    0.0600
30     H30    -0.5459    1.8868   -0.8726 H        1 ZINC000049844830    0.0700
31     H31    -0.5289    1.8773    0.9072 H        1 ZINC000049844830    0.0800
32     H32    -1.9349   -0.2161   -0.9166 H        1 ZINC000049844830    0.0700
33     H33    -1.3904   -1.6478   -0.0099 H        1 ZINC000049844830    0.0600
34     H34    -1.9623   -0.2059    0.8631 H        1 ZINC000049844830    0.0800
35     H35     0.1853   -1.1823   -1.8163 H        1 ZINC000049844830    0.0900
36     H36     1.1858    0.3047   -1.7956 H        1 ZINC000049844830    0.0900
37     H37     3.1639   -1.2133   -2.9946 H        1 ZINC000049844830    0.1200
38     H38     4.2986   -2.5381   -2.6402 H        1 ZINC000049844830    0.1400
39     H39     4.1433   -2.0031   -4.6132 H        1 ZINC000049844830    0.4300
40     H40     4.0224   -3.5589   -7.0816 H        1 ZINC000049844830    0.1000
41     H41     2.2358   -1.8717   -7.4134 H        1 ZINC000049844830    0.0700
42     H42     3.3946   -0.5720   -7.0441 H        1 ZINC000049844830    0.0800
43     H43     3.6311   -2.5678   -9.3414 H        1 ZINC000049844830    0.0700
44     H44     3.1363   -0.8647   -9.4928 H        1 ZINC000049844830    0.0800
45     H45     5.5405   -1.1442  -10.0317 H        1 ZINC000049844830    0.0800
46     H46     5.3244   -0.1472   -8.5731 H        1 ZINC000049844830    0.0700
47     H47     5.9522   -3.1340   -8.6105 H        1 ZINC000049844830    0.0700
48     H48     7.1110   -1.8343   -8.2412 H        1 ZINC000049844830    0.0800
49     H49     5.7157   -1.1382   -6.3132 H        1 ZINC000049844830    0.0800
50     H50     6.2105   -2.8413   -6.1618 H        1 ZINC000049844830    0.0800
51     H51     1.0934   -5.3324   -4.3331 H        1 ZINC000049844830    0.1200
52     H52    -0.2894   -3.3039   -4.6819 H        1 ZINC000049844830    0.0800
53     H53    -0.5549   -3.7765   -6.3773 H        1 ZINC000049844830    0.0800
54     H54    -1.3708   -5.4038   -3.9272 H        1 ZINC000049844830    0.0700
55     H55    -2.4700   -4.4526   -4.9546 H        1 ZINC000049844830    0.0800
56     H56    -2.5057   -6.8484   -5.5928 H        1 ZINC000049844830    0.0800
57     H57    -1.8492   -5.8463   -6.9092 H        1 ZINC000049844830    0.0700
58     H58    -0.2008   -7.4023   -4.8650 H        1 ZINC000049844830    0.0700
59     H59    -0.4664   -7.8749   -6.5605 H        1 ZINC000049844830    0.0800
60     H60     0.6151   -5.7750   -7.3151 H        1 ZINC000049844830    0.0800
61     H61     1.7142   -6.7262   -6.2878 H        1 ZINC000049844830    0.0800
62     H62     4.6890   -3.1552   -0.3224 H        1 ZINC000049844830    0.2100
@<TRIPOS>BOND
1     1     2     1
2     1     29    1
3     1     30    1
4     1     31    1
5     2     28    1
6     2     3     1
7     2     4     1
8     3     32    1
9     3     33    1
10    3     34    1
11    4     5     1
12    4     35    1
13    4     36    1
14    5     27    1
15    5     6     1
16    6     7     1
17    6     25    2
18    7     8     1
19    7     37    1
20    7     38    1
21    8     9     1
22    9     10    ar
23    9     17    ar
24    10    11    1
25    10    39    1
26    11    16    1
27    11    12    1
28    11    40    1
29    12    13    1
30    12    41    1
31    12    42    1
32    13    14    1
33    13    43    1
34    13    44    1
35    14    15    1
36    14    45    1
37    14    46    1
38    15    16    1
39    15    47    1
40    15    48    1
41    16    49    1
42    16    50    1
43    17    18    1
44    17    19    1
45    19    24    1
46    19    20    1
47    19    51    1
48    20    21    1
49    20    52    1
50    20    53    1
51    21    22    1
52    21    54    1
53    21    55    1
54    22    23    1
55    22    56    1
56    22    57    1
57    23    24    1
58    23    58    1
59    23    59    1
60    24    60    1
61    24    61    1
62    25    26    1
63    25    62    1
64    26    27    1
65    27    28    2
@<TRIPOS>SUBSTRUCTURE
1   ZINC000049844830 1     RESIDUE    1   A     ZIN   1
