@<TRIPOS>MOLECULE
ZINC000001847613
16    17    1     0     0
SMALL
USER_CHARGES
@<TRIPOS>ATOM
1      C1     -0.0165    1.3627    0.0095 C.ar     1 ZINC000001847613   -0.1800
2      C2      1.1798    2.0760    0.0019 C.ar     1 ZINC000001847613    0.1500
3      N3      2.3450    1.4719   -0.0124 N.ar     1 ZINC000001847613   -0.4800
4      C4      2.4316    0.1415   -0.0204 C.ar     1 ZINC000001847613    0.1500
5      C5      3.6709   -0.5260   -0.0347 C.ar     1 ZINC000001847613   -0.1400
6      C6      3.6820   -1.8872   -0.0413 C.ar     1 ZINC000001847613    0.0900
7      N7      2.5631   -2.5985   -0.0350 N.ar     1 ZINC000001847613   -0.4900
8      C8      1.3724   -2.0453   -0.0216 C.ar     1 ZINC000001847613    0.1600
9      C9      1.2519   -0.6474   -0.0134 C.ar     1 ZINC000001847613   -0.1700
10     C10     0.0021   -0.0041    0.0020 C.ar     1 ZINC000001847613   -0.0300
11     H11    -0.9590    1.8897    0.0259 H        1 ZINC000001847613    0.1400
12     H12     1.1478    3.1555    0.0077 H        1 ZINC000001847613    0.1700
13     H13     4.5958    0.0316   -0.0408 H        1 ZINC000001847613    0.1500
14     H14     4.6307   -2.4033   -0.0523 H        1 ZINC000001847613    0.1600
15     H15     0.4878   -2.6649   -0.0173 H        1 ZINC000001847613    0.1700
16     H16    -0.9161   -0.5727    0.0081 H        1 ZINC000001847613    0.1500
@<TRIPOS>BOND
1     1     10    ar
2     1     2     ar
3     1     11    1
4     2     3     ar
5     2     12    1
6     3     4     ar
7     4     9     ar
8     4     5     ar
9     5     6     ar
10    5     13    1
11    6     7     ar
12    6     14    1
13    7     8     ar
14    8     9     ar
15    8     15    1
16    9     10    ar
17    10    16    1
@<TRIPOS>SUBSTRUCTURE
1   ZINC000001847613 1     RESIDUE    1   A     ZIN   1
