@<TRIPOS>MOLECULE
ZINC000004165414
82    86    1     0     0
SMALL
USER_CHARGES
@<TRIPOS>ATOM
1      C1     -2.6024  -10.9561   -7.7573 C.3      1 ZINC000004165414   -0.1400
2      C2     -1.2476  -10.3093   -7.8879 C.2      1 ZINC000004165414    0.4500
3      O3     -1.1626   -9.1248   -8.1112 O.2      1 ZINC000004165414   -0.4800
4      O4     -0.1351  -11.0490   -7.7561 O.3      1 ZINC000004165414   -0.2900
5      C5      1.0532  -10.3899   -7.8001 C.ar     1 ZINC000004165414    0.0900
6      C6      1.6437   -9.9437   -6.6314 C.ar     1 ZINC000004165414   -0.1100
7      C7      2.8524   -9.2618   -6.6644 C.ar     1 ZINC000004165414   -0.0300
8      C8      3.4684   -9.0196   -7.8711 C.ar     1 ZINC000004165414   -0.0600
9      C9      4.7522   -8.2452   -7.9565 C.3      1 ZINC000004165414   -0.0400
10     C10     5.1092   -7.5968   -6.6649 C.2      1 ZINC000004165414   -0.1800
11     C11     4.5390   -7.8183   -5.5179 C.2      1 ZINC000004165414   -0.0600
12     C12     3.4539   -8.8342   -5.3471 C.3      1 ZINC000004165414    0.0300
13     C13     4.0454  -10.1141   -4.7412 C.3      1 ZINC000004165414   -0.1400
14     C14     2.3366   -8.3488   -4.4324 C.3      1 ZINC000004165414   -0.1000
15     C15     2.8326   -7.5434   -3.2408 C.3      1 ZINC000004165414   -0.1100
16     C16     3.7423   -6.3933   -3.6878 C.3      1 ZINC000004165414   -0.0200
17     C17     2.9841   -5.6066   -4.7624 C.3      1 ZINC000004165414   -0.1500
18     C18     4.1013   -5.5031   -2.5111 C.3      1 ZINC000004165414   -0.0400
19     H19     4.5184   -6.2035   -1.7308 H        1 ZINC000004165414    0.0400
20     C20     2.8762   -4.9061   -1.8538 C.3      1 ZINC000004165414   -0.0800
21     C21     2.5372   -3.4554   -2.0852 C.3      1 ZINC000004165414   -0.1200
22     C22     2.0642   -2.8699   -0.7260 C.3      1 ZINC000004165414   -0.1300
23     C23     1.3406   -3.3496   -3.0136 C.2      1 ZINC000004165414    0.5100
24     O24     1.4250   -2.7067   -4.0461 O.co2    1 ZINC000004165414   -0.6900
25     O25     0.2952   -3.9075   -2.7267 O.co2    1 ZINC000004165414   -0.7000
26     C26     3.6368   -2.5502   -2.5957 C.3      1 ZINC000004165414   -0.0900
27     C27     4.6750   -3.2458   -3.4584 C.3      1 ZINC000004165414   -0.0900
28     C28     5.2007   -4.4985   -2.7656 C.3      1 ZINC000004165414   -0.0400
29     C29     5.7792   -4.0701   -1.3947 C.3      1 ZINC000004165414   -0.1400
30     C30     6.3712   -5.0629   -3.5665 C.3      1 ZINC000004165414   -0.1100
31     C31     5.9229   -5.8784   -4.7724 C.3      1 ZINC000004165414   -0.1100
32     C32     4.9969   -7.0042   -4.3219 C.3      1 ZINC000004165414   -0.0100
33     C33     5.7553   -7.8834   -3.3301 C.3      1 ZINC000004165414   -0.1400
34     C34     2.8943   -9.4845   -9.0455 C.ar     1 ZINC000004165414   -0.0700
35     C35     3.5693   -9.2490  -10.3733 C.3      1 ZINC000004165414   -0.1200
36     C36     1.6880  -10.1643   -9.0177 C.ar     1 ZINC000004165414    0.0800
37     O37     1.1268  -10.6043  -10.1754 O.3      1 ZINC000004165414   -0.2900
38     C38     1.4619  -11.8381  -10.5847 C.2      1 ZINC000004165414    0.4500
39     C39     0.8795  -12.3935  -11.8588 C.3      1 ZINC000004165414   -0.1400
40     O40     2.2306  -12.5034   -9.9316 O.2      1 ZINC000004165414   -0.4900
41     H41    -3.3790  -10.2035   -7.8937 H        1 ZINC000004165414    0.1100
42     H42    -2.7098  -11.7308   -8.5165 H        1 ZINC000004165414    0.1000
43     H43    -2.6983  -11.4019   -6.7672 H        1 ZINC000004165414    0.1000
44     H44     1.1512  -10.1256   -5.6877 H        1 ZINC000004165414    0.1400
45     H45     5.5562   -8.9190   -8.2448 H        1 ZINC000004165414    0.0900
46     H46     4.6525   -7.4633   -8.7102 H        1 ZINC000004165414    0.0900
47     H47     5.9157   -6.8792   -6.6977 H        1 ZINC000004165414    0.1200
48     H48     4.3134   -9.9331   -3.7003 H        1 ZINC000004165414    0.0700
49     H49     3.3077  -10.9149   -4.7925 H        1 ZINC000004165414    0.0600
50     H50     4.9351  -10.4033   -5.3005 H        1 ZINC000004165414    0.0600
51     H51     1.5995   -7.7837   -5.0065 H        1 ZINC000004165414    0.0700
52     H52     1.8057   -9.2365   -4.0411 H        1 ZINC000004165414    0.0600
53     H53     1.9587   -7.1148   -2.7301 H        1 ZINC000004165414    0.0700
54     H54     3.3383   -8.1806   -2.5231 H        1 ZINC000004165414    0.0600
55     H55     2.1524   -5.0727   -4.3028 H        1 ZINC000004165414    0.0800
56     H56     3.6589   -4.8918   -5.2333 H        1 ZINC000004165414    0.0500
57     H57     2.6018   -6.2958   -5.5154 H        1 ZINC000004165414    0.0500
58     H58     1.9887   -5.5097   -2.1267 H        1 ZINC000004165414    0.0700
59     H59     2.9731   -5.0655   -0.7577 H        1 ZINC000004165414    0.0300
60     H60     2.8643   -2.9637    0.0082 H        1 ZINC000004165414    0.0300
61     H61     1.8088   -1.8178   -0.8527 H        1 ZINC000004165414    0.0400
62     H62     1.1875   -3.4174   -0.3799 H        1 ZINC000004165414    0.0500
63     H63     3.1698   -1.7503   -3.2037 H        1 ZINC000004165414    0.0700
64     H64     4.1233   -2.0374   -1.7601 H        1 ZINC000004165414    0.0300
65     H65     4.2799   -3.4671   -4.4408 H        1 ZINC000004165414    0.0700
66     H66     5.5234   -2.5575   -3.6080 H        1 ZINC000004165414    0.0400
67     H67     4.9934   -3.6078   -0.7973 H        1 ZINC000004165414    0.0600
68     H68     6.1643   -4.9463   -0.8731 H        1 ZINC000004165414    0.0400
69     H69     6.5870   -3.3547   -1.5488 H        1 ZINC000004165414    0.0500
70     H70     6.9809   -4.2171   -3.9236 H        1 ZINC000004165414    0.0500
71     H71     7.0102   -5.6572   -2.9117 H        1 ZINC000004165414    0.0600
72     H72     5.4357   -5.2385   -5.5035 H        1 ZINC000004165414    0.0700
73     H73     6.8127   -6.3229   -5.2455 H        1 ZINC000004165414    0.0500
74     H74     6.2783   -7.2525   -2.6114 H        1 ZINC000004165414    0.0600
75     H75     5.0513   -8.5275   -2.8033 H        1 ZINC000004165414    0.0600
76     H76     6.4777   -8.4977   -3.8676 H        1 ZINC000004165414    0.0500
77     H77     4.2415  -10.0788  -10.5914 H        1 ZINC000004165414    0.0700
78     H78     2.8148   -9.1771  -11.1567 H        1 ZINC000004165414    0.0700
79     H79     4.1393   -8.3209  -10.3316 H        1 ZINC000004165414    0.0800
80     H80     1.5278  -12.1371  -12.6967 H        1 ZINC000004165414    0.1100
81     H81     0.7998  -13.4777  -11.7796 H        1 ZINC000004165414    0.1100
82     H82    -0.1105  -11.9674  -12.0217 H        1 ZINC000004165414    0.1000
@<TRIPOS>BOND
1     1     2     1
2     1     41    1
3     1     42    1
4     1     43    1
5     2     3     2
6     2     4     1
7     4     5     1
8     5     36    ar
9     5     6     ar
10    6     7     ar
11    6     44    1
12    7     12    1
13    7     8     ar
14    8     9     1
15    8     34    ar
16    9     10    1
17    9     45    1
18    9     46    1
19    10    11    2
20    10    47    1
21    11    32    1
22    11    12    1
23    12    13    1
24    12    14    1
25    13    48    1
26    13    49    1
27    13    50    1
28    14    15    1
29    14    51    1
30    14    52    1
31    15    16    1
32    15    53    1
33    15    54    1
34    16    32    1
35    16    17    1
36    16    18    1
37    17    55    1
38    17    56    1
39    17    57    1
40    18    19    1
41    18    28    1
42    18    20    1
43    20    21    1
44    20    58    1
45    20    59    1
46    21    22    1
47    21    23    1
48    21    26    1
49    22    60    1
50    22    61    1
51    22    62    1
52    23    24    ar
53    23    25    ar
54    26    27    1
55    26    63    1
56    26    64    1
57    27    28    1
58    27    65    1
59    27    66    1
60    28    29    1
61    28    30    1
62    29    67    1
63    29    68    1
64    29    69    1
65    30    31    1
66    30    70    1
67    30    71    1
68    31    32    1
69    31    72    1
70    31    73    1
71    32    33    1
72    33    74    1
73    33    75    1
74    33    76    1
75    34    35    1
76    34    36    ar
77    35    77    1
78    35    78    1
79    35    79    1
80    36    37    1
81    37    38    1
82    38    39    1
83    38    40    2
84    39    80    1
85    39    81    1
86    39    82    1
@<TRIPOS>SUBSTRUCTURE
1   ZINC000004165414 1     RESIDUE    1   A     ZIN   1
