@<TRIPOS>MOLECULE
ZINC000008383476
71    76    1     0     0
SMALL
USER_CHARGES
@<TRIPOS>ATOM
1      C1     -1.4831    2.8572    0.1378 C.3      1 ZINC000008383476   -0.1500
2      C2     -1.1668    1.3641    0.2454 C.3      1 ZINC000008383476   -0.1200
3      C3     -2.4671    0.5609    0.1746 C.3      1 ZINC000008383476   -0.1200
4      C4     -2.1507   -0.9322    0.2821 C.3      1 ZINC000008383476   -0.1200
5      C5     -3.4510   -1.7354    0.2113 C.3      1 ZINC000008383476    0.0600
6      O6     -3.1555   -3.1299    0.3118 O.3      1 ZINC000008383476   -0.3200
7      C7     -4.2079   -3.9885    0.2656 C.ar     1 ZINC000008383476    0.1200
8      C8     -5.4980   -3.4992    0.1206 C.ar     1 ZINC000008383476   -0.2100
9      C9     -6.5661   -4.3740    0.0735 C.ar     1 ZINC000008383476   -0.0300
10     C10    -6.3503   -5.7362    0.1710 C.ar     1 ZINC000008383476   -0.0900
11     C11    -7.5174   -6.6883    0.1198 C.3      1 ZINC000008383476    0.2800
12     H12    -8.3737   -6.2040   -0.3496 H        1 ZINC000008383476    0.0900
13     C13    -7.8790   -7.1397    1.5160 C.2      1 ZINC000008383476   -0.4800
14     C14    -8.2896   -6.3395    2.5688 C.2      1 ZINC000008383476    0.4300
15     O15    -8.2993   -4.9949    2.4318 O.3      1 ZINC000008383476   -0.5900
16     C16    -8.7130   -6.9493    3.8290 C.2      1 ZINC000008383476    0.0600
17     C17    -8.2946   -6.5671    5.0682 C.2      1 ZINC000008383476   -0.1900
18     C18    -8.9443   -7.4141    6.0007 C.ar     1 ZINC000008383476   -0.1200
19     C19    -8.9233   -7.5138    7.3961 C.ar     1 ZINC000008383476   -0.0800
20     C20    -9.6825   -8.4628    8.0196 C.ar     1 ZINC000008383476   -0.1400
21     C21   -10.4749   -9.3293    7.2792 C.ar     1 ZINC000008383476   -0.1100
22     C22   -10.5100   -9.2486    5.9030 C.ar     1 ZINC000008383476   -0.1000
23     C23    -9.7471   -8.2915    5.2467 C.ar     1 ZINC000008383476    0.0500
24     O24    -9.5840   -7.9752    3.9458 O.3      1 ZINC000008383476   -0.1500
25     C25    -7.7154   -8.5317    1.5304 C.2      1 ZINC000008383476    0.3800
26     O26    -7.9119   -9.2641    2.4843 O.2      1 ZINC000008383476   -0.4700
27     C27    -7.2620   -8.9604    0.1825 C.2      1 ZINC000008383476    0.4800
28     O28    -7.0275  -10.1076   -0.1404 O.2      1 ZINC000008383476   -0.4800
29     N29    -7.1495   -7.8939   -0.6286 N.am     1 ZINC000008383476   -0.5000
30     C30    -6.7494   -7.9295   -1.9592 C.2      1 ZINC000008383476    0.2800
31     N31    -6.6321   -6.9056   -2.7510 N.2      1 ZINC000008383476   -0.2800
32     N32    -6.2550   -7.1186   -3.9353 N.2      1 ZINC000008383476   -0.2300
33     C33    -6.0100   -8.3495   -4.2804 C.2      1 ZINC000008383476   -0.0600
34     S34    -5.4739   -8.8960   -5.8674 S.3      1 ZINC000008383476    0.0300
35     C35    -5.3987   -7.3104   -6.7370 C.3      1 ZINC000008383476   -0.0700
36     C36    -4.9493   -7.5373   -8.1574 C.ar     1 ZINC000008383476   -0.1100
37     C37    -3.6031   -7.5148   -8.4684 C.ar     1 ZINC000008383476   -0.0700
38     C38    -3.1905   -7.7229   -9.7715 C.ar     1 ZINC000008383476   -0.1300
39     C39    -4.1239   -7.9532  -10.7647 C.ar     1 ZINC000008383476   -0.0800
40     C40    -5.4710   -7.9756  -10.4561 C.ar     1 ZINC000008383476   -0.1600
41     C41    -5.8849   -7.7740   -9.1505 C.ar     1 ZINC000008383476    0.1200
42     F42    -7.2014   -7.7957   -8.8477 F        1 ZINC000008383476   -0.1300
43     S43    -6.3028   -9.3722   -2.8722 S.3      1 ZINC000008383476    0.1700
44     C44    -5.0655   -6.2264    0.3151 C.ar     1 ZINC000008383476   -0.0700
45     C45    -3.9936   -5.3561    0.3575 C.ar     1 ZINC000008383476   -0.1600
46     H46    -0.5568    3.4294    0.1883 H        1 ZINC000008383476    0.0500
47     H47    -1.9815    3.0555   -0.8110 H        1 ZINC000008383476    0.0500
48     H48    -2.1365    3.1502    0.9596 H        1 ZINC000008383476    0.0500
49     H49    -0.5134    1.0710   -0.5764 H        1 ZINC000008383476    0.0600
50     H50    -0.6684    1.1657    1.1943 H        1 ZINC000008383476    0.0600
51     H51    -3.1204    0.8540    0.9964 H        1 ZINC000008383476    0.0700
52     H52    -2.9654    0.7592   -0.7743 H        1 ZINC000008383476    0.0600
53     H53    -1.4973   -1.2253   -0.5397 H        1 ZINC000008383476    0.0700
54     H54    -1.6523   -1.1306    1.2310 H        1 ZINC000008383476    0.0700
55     H55    -4.1043   -1.4423    1.0331 H        1 ZINC000008383476    0.0600
56     H56    -3.9493   -1.5371   -0.7376 H        1 ZINC000008383476    0.0600
57     H57    -5.6671   -2.4352    0.0451 H        1 ZINC000008383476    0.1200
58     H58    -7.5705   -3.9935   -0.0393 H        1 ZINC000008383476    0.1300
59     H59    -7.6007   -5.7715    5.2962 H        1 ZINC000008383476    0.1500
60     H60    -8.3088   -6.8430    7.9782 H        1 ZINC000008383476    0.1200
61     H61    -9.6659   -8.5399    9.0967 H        1 ZINC000008383476    0.1200
62     H62   -11.0698  -10.0746    7.7862 H        1 ZINC000008383476    0.1300
63     H63   -11.1298   -9.9281    5.3368 H        1 ZINC000008383476    0.1300
64     H64    -6.3863   -6.8491   -6.7377 H        1 ZINC000008383476    0.1100
65     H65    -4.6908   -6.6526   -6.2327 H        1 ZINC000008383476    0.1100
66     H66    -2.8730   -7.3343   -7.6933 H        1 ZINC000008383476    0.1400
67     H67    -2.1382   -7.7052  -10.0137 H        1 ZINC000008383476    0.1300
68     H68    -3.8005   -8.1152  -11.7823 H        1 ZINC000008383476    0.1300
69     H69    -6.2001   -8.1549  -11.2324 H        1 ZINC000008383476    0.1400
70     H70    -4.8995   -7.2909    0.3907 H        1 ZINC000008383476    0.1100
71     H71    -2.9902   -5.7395    0.4700 H        1 ZINC000008383476    0.1200
@<TRIPOS>BOND
1     1     2     1
2     1     46    1
3     1     47    1
4     1     48    1
5     2     3     1
6     2     49    1
7     2     50    1
8     3     4     1
9     3     51    1
10    3     52    1
11    4     5     1
12    4     53    1
13    4     54    1
14    5     6     1
15    5     55    1
16    5     56    1
17    6     7     1
18    7     45    ar
19    7     8     ar
20    8     9     ar
21    8     57    1
22    9     10    ar
23    9     58    1
24    10    11    1
25    10    44    ar
26    11    12    1
27    11    29    1
28    11    13    1
29    13    14    2
30    13    25    1
31    14    15    1
32    14    16    1
33    16    24    1
34    16    17    2
35    17    18    1
36    17    59    1
37    18    23    ar
38    18    19    ar
39    19    20    ar
40    19    60    1
41    20    21    ar
42    20    61    1
43    21    22    ar
44    21    62    1
45    22    23    ar
46    22    63    1
47    23    24    1
48    25    26    2
49    25    27    1
50    27    28    2
51    27    29    am
52    29    30    1
53    30    43    1
54    30    31    2
55    31    32    1
56    32    33    2
57    33    34    1
58    33    43    1
59    34    35    1
60    35    36    1
61    35    64    1
62    35    65    1
63    36    41    ar
64    36    37    ar
65    37    38    ar
66    37    66    1
67    38    39    ar
68    38    67    1
69    39    40    ar
70    39    68    1
71    40    41    ar
72    40    69    1
73    41    42    1
74    44    45    ar
75    44    70    1
76    45    71    1
@<TRIPOS>SUBSTRUCTURE
1   ZINC000008383476 1     RESIDUE    1   A     ZIN   1
