@<TRIPOS>MOLECULE
ZINC000005648662
  30   31    0    0    0
SMALL
USER_CHARGES
NO_NAME
@<TRIPOS>ATOM
    1 C1       -0.0184     1.5028     0.0103 C.3    1 <0>      -0.1500
    2 C2        0.0021    -0.0041     0.0020 C.2    1 <0>       0.1800
    3 N3        0.0216    -0.6590     1.1224 N.2    1 <0>      -0.2700
    4 N4        0.0237     0.0349     2.3395 N.am   1 <0>      -0.5300
    5 C5        0.0440    -0.6452     3.5029 C.2    1 <0>       0.6200
    6 S6        0.0465     0.2028     4.9902 S.2    1 <0>      -0.6300
    7 N7        0.0623    -1.9928     3.4955 N.am   1 <0>      -0.5900
    8 C8        0.0735    -3.0460     2.4692 C.3    1 <0>       0.1000
    9 C9       -0.6094    -3.9699     3.4871 C.3    1 <0>      -0.1600
   10 C10       0.0864    -3.0571     4.5102 C.3    1 <0>       0.1200
   11 C11      -0.0001    -0.7342    -1.2786 C.ar   1 <0>       0.1600
   12 C12       0.0131    -2.1307    -1.2804 C.ar   1 <0>      -0.1300
   13 C13       0.0103    -2.8008    -2.4907 C.ar   1 <0>      -0.0800
   14 C14      -0.0055    -2.0554    -3.6615 C.ar   1 <0>      -0.1500
   15 C15      -0.0180    -0.6741    -3.5876 C.ar   1 <0>       0.1100
   16 N16      -0.0202    -0.0585    -2.4235 N.ar   1 <0>      -0.4600
   17 H17       1.0042     1.8801     0.0026 H      1 <0>       0.0900
   18 H18      -0.5455     1.8639    -0.8728 H      1 <0>       0.1000
   19 H19      -0.5286     1.8543     0.9071 H      1 <0>       0.0700
   20 H20       0.0105     1.0048     2.3448 H      1 <0>       0.4200
   21 H21      -0.5497    -2.8165     1.6048 H      1 <0>       0.0900
   22 H22       1.0762    -3.3714     2.1920 H      1 <0>       0.0900
   23 H23      -1.6974    -3.9036     3.4913 H      1 <0>       0.1000
   24 H24      -0.2380    -4.9946     3.4802 H      1 <0>       0.1000
   25 H25       1.0911    -3.3874     4.7740 H      1 <0>       0.1000
   26 H26      -0.5279    -2.8359     5.3830 H      1 <0>       0.1000
   27 H27       0.0256    -2.6795    -0.3504 H      1 <0>       0.1400
   28 H28       0.0206    -3.8803    -2.5239 H      1 <0>       0.1400
   29 H29      -0.0076    -2.5495    -4.6218 H      1 <0>       0.1400
   30 H30      -0.0299    -0.0924    -4.4975 H      1 <0>       0.1700
@<TRIPOS>BOND
   1    1    2 1
   2    1   17 1
   3    1   18 1
   4    1   19 1
   5    2    3 2
   6    2   11 1
   7    3    4 1
   8    4    5 am
   9    4   20 1
  10    5    6 2
  11    5    7 am
  12    7   10 1
  13    7    8 1
  14    8    9 1
  15    8   21 1
  16    8   22 1
  17    9   10 1
  18    9   23 1
  19    9   24 1
  20   10   25 1
  21   10   26 1
  22   11   16 ar
  23   11   12 ar
  24   12   13 ar
  25   12   27 1
  26   13   14 ar
  27   13   28 1
  28   14   15 ar
  29   14   29 1
  30   15   16 ar
  31   15   30 1
