@<TRIPOS>MOLECULE
ZINC000001549363
57    58    1     0     0
SMALL
USER_CHARGES
@<TRIPOS>ATOM
1      C1     -0.0187    1.5258    0.0104 C.3      1 ZINC000001549363   -0.1600
2      C2      0.0021   -0.0041    0.0020 C.3      1 ZINC000001549363    0.1300
3      H3     -1.0205   -0.3814    0.0098 H        1 ZINC000001549363    0.1200
4      N4      0.7106   -0.4894    1.1889 N.am     1 ZINC000001549363   -0.7100
5      C5      0.0512   -0.6335    2.3554 C.2      1 ZINC000001549363    0.5200
6      O6     -1.1288   -0.3614    2.4226 O.2      1 ZINC000001549363   -0.5300
7      C7      0.7801   -1.1327    3.5763 C.3      1 ZINC000001549363   -0.1000
8      C8     -0.1764   -1.2027    4.7388 C.ar     1 ZINC000001549363   -0.0100
9      C9     -0.3423   -0.1062    5.5635 C.ar     1 ZINC000001549363   -0.1500
10     C10    -1.2209   -0.1694    6.6320 C.ar     1 ZINC000001549363    0.1300
11     F11    -1.3829    0.9026    7.4380 F        1 ZINC000001549363   -0.1300
12     C12    -1.9335   -1.3313    6.8735 C.ar     1 ZINC000001549363   -0.1900
13     C13    -1.7669   -2.4287    6.0465 C.ar     1 ZINC000001549363    0.1300
14     F14    -2.4618   -3.5633    6.2811 F        1 ZINC000001549363   -0.1300
15     C15    -0.8913   -2.3616    4.9758 C.ar     1 ZINC000001549363   -0.1500
16     C16     0.7074   -0.4901   -1.2379 C.2      1 ZINC000001549363    0.5200
17     O17     1.7039   -1.1744   -1.1398 O.2      1 ZINC000001549363   -0.5300
18     N18     0.2309   -0.1642   -2.4557 N.am     1 ZINC000001549363   -0.7000
19     C19     0.9167   -0.6367   -3.6611 C.3      1 ZINC000001549363    0.2000
20     H20     1.3241   -1.6315   -3.4809 H        1 ZINC000001549363    0.1300
21     C21     2.0372    0.3104   -4.0054 C.2      1 ZINC000001549363    0.4600
22     O22     2.2420    1.2805   -3.3148 O.2      1 ZINC000001549363   -0.4900
23     O23     2.8078    0.0762   -5.0792 O.3      1 ZINC000001549363   -0.3400
24     C24     3.8682    1.0304   -5.3503 C.3      1 ZINC000001549363    0.1200
25     C25     4.8270    1.0793   -4.1591 C.3      1 ZINC000001549363   -0.1800
26     C26     4.6332    0.6001   -6.6035 C.3      1 ZINC000001549363   -0.1400
27     C27     3.2616    2.4171   -5.5740 C.3      1 ZINC000001549363   -0.1800
28     C28    -0.0619   -0.6943   -4.8057 C.ar     1 ZINC000001549363   -0.1000
29     C29    -0.9986    0.3096   -4.9655 C.ar     1 ZINC000001549363   -0.1100
30     C30    -1.8962    0.2567   -6.0154 C.ar     1 ZINC000001549363   -0.1100
31     C31    -1.8568   -0.7999   -6.9059 C.ar     1 ZINC000001549363   -0.1100
32     C32    -0.9194   -1.8034   -6.7466 C.ar     1 ZINC000001549363   -0.1100
33     C33    -0.0191   -1.7483   -5.6992 C.ar     1 ZINC000001549363   -0.0900
34     H34     1.0039    1.9031    0.0027 H        1 ZINC000001549363    0.0700
35     H35    -0.5459    1.8868   -0.8726 H        1 ZINC000001549363    0.0700
36     H36    -0.5289    1.8773    0.9072 H        1 ZINC000001549363    0.0800
37     H37     1.6544   -0.7070    1.1351 H        1 ZINC000001549363    0.4100
38     H38     1.1839   -2.1254    3.3778 H        1 ZINC000001549363    0.1200
39     H39     1.5952   -0.4503    3.8172 H        1 ZINC000001549363    0.1100
40     H40     0.2138    0.8002    5.3749 H        1 ZINC000001549363    0.1400
41     H41    -2.6188   -1.3816    7.7068 H        1 ZINC000001549363    0.1500
42     H42    -0.7615   -3.2176    4.3303 H        1 ZINC000001549363    0.1400
43     H43    -0.5660    0.3831   -2.5342 H        1 ZINC000001549363    0.4100
44     H44     5.2592    0.0913   -3.9997 H        1 ZINC000001549363    0.0600
45     H45     5.6231    1.7955   -4.3626 H        1 ZINC000001549363    0.0700
46     H46     4.2820    1.3858   -3.2663 H        1 ZINC000001549363    0.0800
47     H47     3.9501    0.5653   -7.4522 H        1 ZINC000001549363    0.0700
48     H48     5.4293    1.3164   -6.8070 H        1 ZINC000001549363    0.0800
49     H49     5.0653   -0.3878   -6.4441 H        1 ZINC000001549363    0.0700
50     H50     2.7166    2.7236   -4.6812 H        1 ZINC000001549363    0.0800
51     H51     4.0577    3.1333   -5.7775 H        1 ZINC000001549363    0.0700
52     H52     2.5785    2.3822   -6.4227 H        1 ZINC000001549363    0.0600
53     H53    -1.0294    1.1351   -4.2698 H        1 ZINC000001549363    0.1200
54     H54    -2.6285    1.0407   -6.1398 H        1 ZINC000001549363    0.1300
55     H55    -2.5585   -0.8416   -7.7258 H        1 ZINC000001549363    0.1300
56     H56    -0.8889   -2.6291   -7.4421 H        1 ZINC000001549363    0.1300
57     H57     0.7132   -2.5323   -5.5748 H        1 ZINC000001549363    0.1300
@<TRIPOS>BOND
1     1     2     1
2     1     34    1
3     1     35    1
4     1     36    1
5     2     3     1
6     2     4     1
7     2     16    1
8     4     5     am
9     4     37    1
10    5     6     2
11    5     7     1
12    7     8     1
13    7     38    1
14    7     39    1
15    8     15    ar
16    8     9     ar
17    9     10    ar
18    9     40    1
19    10    11    1
20    10    12    ar
21    12    13    ar
22    12    41    1
23    13    14    1
24    13    15    ar
25    15    42    1
26    16    17    2
27    16    18    am
28    18    19    1
29    18    43    1
30    19    20    1
31    19    21    1
32    19    28    1
33    21    22    2
34    21    23    1
35    23    24    1
36    24    25    1
37    24    26    1
38    24    27    1
39    25    44    1
40    25    45    1
41    25    46    1
42    26    47    1
43    26    48    1
44    26    49    1
45    27    50    1
46    27    51    1
47    27    52    1
48    28    33    ar
49    28    29    ar
50    29    30    ar
51    29    53    1
52    30    31    ar
53    30    54    1
54    31    32    ar
55    31    55    1
56    32    33    ar
57    32    56    1
58    33    57    1
@<TRIPOS>SUBSTRUCTURE
1   ZINC000001549363 1     RESIDUE    1   A     ZIN   1
