@<TRIPOS>MOLECULE
ZINC000095596345
47    50    1     0     0
SMALL
USER_CHARGES
@<TRIPOS>ATOM
1      C1      0.7070    0.2322    0.6257 C.3      1 ZINC000095596345    0.0200
2      O2      0.4696   -1.1612    0.4155 O.3      1 ZINC000095596345   -0.3100
3      C3     -0.8264   -1.5615    0.3404 C.ar     1 ZINC000095596345    0.1400
4      C4     -1.8479   -0.6277    0.4612 C.ar     1 ZINC000095596345   -0.2100
5      C5     -3.1638   -1.0296    0.3855 C.ar     1 ZINC000095596345   -0.0500
6      C6     -3.4700   -2.3780    0.1866 C.ar     1 ZINC000095596345   -0.0700
7      C7     -4.8799   -2.8135    0.1044 C.2      1 ZINC000095596345   -0.1200
8      C8     -5.5145   -3.3348   -0.9916 C.2      1 ZINC000095596345    0.1700
9      N9     -4.9643   -3.5581   -2.2385 N.pl3    1 ZINC000095596345   -0.6200
10     C10    -4.8963   -4.9146   -2.8046 C.3      1 ZINC000095596345    0.1000
11     C11    -5.4793   -4.8769   -4.2219 C.3      1 ZINC000095596345    0.0400
12     O12    -4.8328   -3.8439   -4.9694 O.3      1 ZINC000095596345   -0.3800
13     C13    -5.0349   -2.5289   -4.4463 C.3      1 ZINC000095596345    0.0500
14     C14    -4.4342   -2.4456   -3.0429 C.3      1 ZINC000095596345    0.1000
15     C15    -6.9083   -3.6124   -0.5734 C.2      1 ZINC000095596345    0.5400
16     O16    -7.7800   -4.0824   -1.2760 O.2      1 ZINC000095596345   -0.4400
17     N17    -7.0445   -3.2562    0.7159 N.am     1 ZINC000095596345   -0.5300
18     C18    -8.2268   -3.3721    1.4599 C.ar     1 ZINC000095596345    0.1500
19     C19    -9.3708   -3.8926    0.8705 C.ar     1 ZINC000095596345   -0.1200
20     C20   -10.5350   -4.0065    1.6054 C.ar     1 ZINC000095596345   -0.0700
21     C21   -10.5621   -3.6021    2.9280 C.ar     1 ZINC000095596345   -0.0400
22     Cl22  -12.0268   -3.7461    3.8486 Cl       1 ZINC000095596345   -0.0400
23     C23    -9.4220   -3.0828    3.5191 C.ar     1 ZINC000095596345   -0.0100
24     Cl24   -9.4590   -2.5767    5.1793 Cl       1 ZINC000095596345   -0.0300
25     C25    -8.2537   -2.9719    2.7891 C.ar     1 ZINC000095596345   -0.1200
26     C26    -5.8808   -2.7783    1.1894 C.2      1 ZINC000095596345    0.5600
27     O27    -5.6869   -2.3772    2.3195 O.2      1 ZINC000095596345   -0.4300
28     C28    -2.4397   -3.3136    0.0652 C.ar     1 ZINC000095596345   -0.0400
29     C29    -1.1264   -2.9026    0.1372 C.ar     1 ZINC000095596345   -0.1500
30     H30     1.7807    0.4158    0.6659 H        1 ZINC000095596345    0.1000
31     H31     0.2713    0.8028   -0.1945 H        1 ZINC000095596345    0.0600
32     H32     0.2501    0.5409    1.5660 H        1 ZINC000095596345    0.0600
33     H33    -1.6103    0.4145    0.6149 H        1 ZINC000095596345    0.1300
34     H34    -3.9574   -0.3031    0.4802 H        1 ZINC000095596345    0.1300
35     H35    -3.8582   -5.2447   -2.8434 H        1 ZINC000095596345    0.0800
36     H36    -5.4770   -5.5997   -2.1869 H        1 ZINC000095596345    0.0900
37     H37    -5.3133   -5.8375   -4.7095 H        1 ZINC000095596345    0.1100
38     H38    -6.5490   -4.6740   -4.1703 H        1 ZINC000095596345    0.0600
39     H39    -4.5492   -1.8002   -5.0953 H        1 ZINC000095596345    0.1100
40     H40    -6.1029   -2.3174   -4.3955 H        1 ZINC000095596345    0.0600
41     H41    -4.7064   -1.4957   -2.5828 H        1 ZINC000095596345    0.0900
42     H42    -3.3490   -2.5275   -3.1026 H        1 ZINC000095596345    0.0800
43     H43    -9.3508   -4.2079   -0.1623 H        1 ZINC000095596345    0.1700
44     H44   -11.4250   -4.4115    1.1468 H        1 ZINC000095596345    0.1500
45     H45    -7.3648   -2.5670    3.2498 H        1 ZINC000095596345    0.1700
46     H46    -2.6722   -4.3571   -0.0883 H        1 ZINC000095596345    0.1300
47     H47    -0.3293   -3.6253    0.0435 H        1 ZINC000095596345    0.1400
@<TRIPOS>BOND
1     1     2     1
2     1     30    1
3     1     31    1
4     1     32    1
5     2     3     1
6     3     29    ar
7     3     4     ar
8     4     5     ar
9     4     33    1
10    5     6     ar
11    5     34    1
12    6     7     1
13    6     28    ar
14    7     26    1
15    7     8     2
16    8     9     1
17    8     15    1
18    9     14    1
19    9     10    1
20    10    11    1
21    10    35    1
22    10    36    1
23    11    12    1
24    11    37    1
25    11    38    1
26    12    13    1
27    13    14    1
28    13    39    1
29    13    40    1
30    14    41    1
31    14    42    1
32    15    16    2
33    15    17    am
34    17    18    1
35    17    26    am
36    18    25    ar
37    18    19    ar
38    19    20    ar
39    19    43    1
40    20    21    ar
41    20    44    1
42    21    22    1
43    21    23    ar
44    23    24    1
45    23    25    ar
46    25    45    1
47    26    27    2
48    28    29    ar
49    28    46    1
50    29    47    1
@<TRIPOS>SUBSTRUCTURE
1   ZINC000095596345 1     RESIDUE    1   A     ZIN   1
