@<TRIPOS>MOLECULE
ZINC000299871886
71    77    1     0     0
SMALL
USER_CHARGES
@<TRIPOS>ATOM
1      C1     -0.1309    0.6446    2.9139 C.3      1 ZINC000299871886   -0.1800
2      C2     -0.1452   -0.4803    1.9112 C.2      1 ZINC000299871886    0.4500
3      O3      0.8802   -0.8054    1.3494 O.2      1 ZINC000299871886   -0.4100
4      C4     -1.3965   -1.1812    1.6148 C.2      1 ZINC000299871886   -0.0100
5      N5     -2.5698   -0.9430    2.1308 N.2      1 ZINC000299871886   -0.1600
6      N6     -3.6352   -1.7144    1.7237 N.pl3    1 ZINC000299871886   -0.3300
7      C7     -4.9244   -1.5199    2.2304 C.ar     1 ZINC000299871886    0.1600
8      C8     -5.5558   -2.5365    2.9359 C.ar     1 ZINC000299871886   -0.0900
9      C9     -6.8286   -2.3412    3.4348 C.ar     1 ZINC000299871886   -0.1000
10     C10    -7.4749   -1.1354    3.2323 C.ar     1 ZINC000299871886   -0.1000
11     C11    -6.8494   -0.1214    2.5300 C.ar     1 ZINC000299871886   -0.1000
12     C12    -5.5741   -0.3077    2.0342 C.ar     1 ZINC000299871886   -0.0800
13     C13    -3.3619   -2.6819    0.7948 C.2      1 ZINC000299871886    0.2300
14     C14    -4.2496   -3.5862    0.2237 C.2      1 ZINC000299871886   -0.3700
15     S15    -3.8645   -5.1297   -0.5618 S.3      1 ZINC000299871886    0.1600
16     C16    -5.5546   -5.5162   -0.9357 C.2      1 ZINC000299871886    0.4200
17     N17    -6.0113   -6.5911   -1.5539 N.2      1 ZINC000299871886   -0.4900
18     C18    -5.1511   -7.5441   -1.9768 C.ar     1 ZINC000299871886    0.3800
19     N19    -3.8472   -7.3985   -1.7640 N.ar     1 ZINC000299871886   -0.5300
20     C20    -2.9666   -8.3078   -2.1613 C.ar     1 ZINC000299871886    0.2400
21     C21    -1.5247   -8.0892   -1.8944 C.ar     1 ZINC000299871886   -0.0600
22     C22    -0.5854   -9.0318   -2.3101 C.ar     1 ZINC000299871886   -0.0900
23     C23     0.7553   -8.8230   -2.0589 C.ar     1 ZINC000299871886   -0.1200
24     C24     1.1679   -7.6813   -1.3956 C.ar     1 ZINC000299871886   -0.1000
25     C25     0.2404   -6.7427   -0.9804 C.ar     1 ZINC000299871886   -0.1300
26     C26    -1.1024   -6.9376   -1.2319 C.ar     1 ZINC000299871886   -0.0700
27     C27    -3.3712   -9.4638   -2.8238 C.ar     1 ZINC000299871886   -0.1700
28     C28    -4.7265   -9.6708   -3.0750 C.ar     1 ZINC000299871886    0.0700
29     C29    -5.1918  -10.8899   -3.7771 C.ar     1 ZINC000299871886   -0.0700
30     C30    -4.5913  -11.2810   -4.9733 C.ar     1 ZINC000299871886   -0.0900
31     C31    -5.0286  -12.4175   -5.6224 C.ar     1 ZINC000299871886   -0.1200
32     C32    -6.0606  -13.1684   -5.0886 C.ar     1 ZINC000299871886   -0.1000
33     C33    -6.6603  -12.7855   -3.9022 C.ar     1 ZINC000299871886   -0.1200
34     C34    -6.2281  -11.6538   -3.2413 C.ar     1 ZINC000299871886   -0.0900
35     C35    -5.6444   -8.6927   -2.6379 C.ar     1 ZINC000299871886   -0.0600
36     C36    -7.0483   -8.8545   -2.8695 C.1      1 ZINC000299871886    0.2700
37     N37    -8.1620   -8.9829   -3.0531 N.1      1 ZINC000299871886   -0.4000
38     N38    -6.2865   -4.4672   -0.4486 N.am     1 ZINC000299871886   -0.4800
39     C39    -7.6817   -4.4422   -0.5736 C.ar     1 ZINC000299871886    0.1300
40     C40    -8.2692   -3.8835   -1.7009 C.ar     1 ZINC000299871886   -0.0900
41     C41    -9.6449   -3.8603   -1.8213 C.ar     1 ZINC000299871886   -0.1100
42     C42   -10.4370   -4.3923   -0.8204 C.ar     1 ZINC000299871886   -0.1000
43     C43    -9.8549   -4.9490    0.3036 C.ar     1 ZINC000299871886   -0.1100
44     C44    -8.4796   -4.9812    0.4267 C.ar     1 ZINC000299871886   -0.0900
45     C45    -5.6396   -3.4812    0.1482 C.2      1 ZINC000299871886    0.5600
46     O46    -6.2313   -2.5158    0.6055 O.2      1 ZINC000299871886   -0.4700
47     S47    -1.6245   -2.5202    0.4762 S.3      1 ZINC000299871886    0.1400
48     H48     0.8808    1.0409    3.0010 H        1 ZINC000299871886    0.1000
49     H49    -0.8036    1.4356    2.5822 H        1 ZINC000299871886    0.1100
50     H50    -0.4596    0.2711    3.8837 H        1 ZINC000299871886    0.1100
51     H51    -5.0520   -3.4787    3.0938 H        1 ZINC000299871886    0.1200
52     H52    -7.3201   -3.1311    3.9833 H        1 ZINC000299871886    0.1300
53     H53    -8.4704   -0.9854    3.6232 H        1 ZINC000299871886    0.1300
54     H54    -7.3570    0.8189    2.3734 H        1 ZINC000299871886    0.1300
55     H55    -5.0860    0.4847    1.4861 H        1 ZINC000299871886    0.1200
56     H56    -0.9065   -9.9238   -2.8275 H        1 ZINC000299871886    0.1300
57     H57     1.4839   -9.5525   -2.3805 H        1 ZINC000299871886    0.1300
58     H58     2.2183   -7.5223   -1.2009 H        1 ZINC000299871886    0.1300
59     H59     0.5682   -5.8536   -0.4623 H        1 ZINC000299871886    0.1300
60     H60    -1.8257   -6.2040   -0.9075 H        1 ZINC000299871886    0.1300
61     H61    -2.6410  -10.1936   -3.1407 H        1 ZINC000299871886    0.1500
62     H62    -3.7858  -10.6953   -5.3912 H        1 ZINC000299871886    0.1300
63     H63    -4.5645  -12.7211   -6.5491 H        1 ZINC000299871886    0.1300
64     H64    -6.3997  -14.0569   -5.6004 H        1 ZINC000299871886    0.1300
65     H65    -7.4657  -13.3755   -3.4905 H        1 ZINC000299871886    0.1300
66     H66    -6.6969  -11.3559   -2.3151 H        1 ZINC000299871886    0.1200
67     H67    -7.6511   -3.4672   -2.4825 H        1 ZINC000299871886    0.1200
68     H68   -10.1024   -3.4258   -2.6978 H        1 ZINC000299871886    0.1300
69     H69   -11.5125   -4.3727   -0.9167 H        1 ZINC000299871886    0.1300
70     H70   -10.4762   -5.3634    1.0837 H        1 ZINC000299871886    0.1300
71     H71    -8.0255   -5.4165    1.3047 H        1 ZINC000299871886    0.1200
@<TRIPOS>BOND
1     1     2     1
2     1     48    1
3     1     49    1
4     1     50    1
5     2     3     2
6     2     4     1
7     4     47    1
8     4     5     2
9     5     6     1
10    6     7     1
11    6     13    1
12    7     12    ar
13    7     8     ar
14    8     9     ar
15    8     51    1
16    9     10    ar
17    9     52    1
18    10    11    ar
19    10    53    1
20    11    12    ar
21    11    54    1
22    12    55    1
23    13    14    2
24    13    47    1
25    14    45    1
26    14    15    1
27    15    16    1
28    16    17    2
29    16    38    1
30    17    18    1
31    18    35    ar
32    18    19    ar
33    19    20    ar
34    20    21    1
35    20    27    ar
36    21    26    ar
37    21    22    ar
38    22    23    ar
39    22    56    1
40    23    24    ar
41    23    57    1
42    24    25    ar
43    24    58    1
44    25    26    ar
45    25    59    1
46    26    60    1
47    27    28    ar
48    27    61    1
49    28    29    1
50    28    35    ar
51    29    34    ar
52    29    30    ar
53    30    31    ar
54    30    62    1
55    31    32    ar
56    31    63    1
57    32    33    ar
58    32    64    1
59    33    34    ar
60    33    65    1
61    34    66    1
62    35    36    1
63    36    37    3
64    38    39    1
65    38    45    am
66    39    44    ar
67    39    40    ar
68    40    41    ar
69    40    67    1
70    41    42    ar
71    41    68    1
72    42    43    ar
73    42    69    1
74    43    44    ar
75    43    70    1
76    44    71    1
77    45    46    2
@<TRIPOS>SUBSTRUCTURE
1   ZINC000299871886 1     RESIDUE    1   A     ZIN   1
