@<TRIPOS>MOLECULE
ZINC000003620786
56    60    1     0     0
SMALL
USER_CHARGES
@<TRIPOS>ATOM
1      C1     -0.0204    1.3340   -0.1509 C.2      1 ZINC000003620786    0.3000
2      N2      1.1953    1.7900   -0.2743 N.2      1 ZINC000003620786   -0.5000
3      C3      2.0768    0.7813   -0.1405 C.ar     1 ZINC000003620786    0.3600
4      N4      3.4106    0.6932   -0.1778 N.ar     1 ZINC000003620786   -0.5600
5      C5      4.0110   -0.4716   -0.0069 C.ar     1 ZINC000003620786    0.6000
6      N6      5.3960   -0.5232   -0.0523 N.pl3    1 ZINC000003620786   -0.6400
7      C7      6.1379    0.6603   -0.1588 C.ar     1 ZINC000003620786    0.1500
8      C8      7.3296    0.6709   -0.8716 C.ar     1 ZINC000003620786   -0.1200
9      C9      8.0609    1.8374   -0.9766 C.ar     1 ZINC000003620786   -0.1200
10     C10     7.6045    3.0001   -0.3696 C.ar     1 ZINC000003620786    0.0900
11     N11     8.3455    4.1826   -0.4764 N.3      1 ZINC000003620786   -0.4900
12     C12     9.7169    3.9913    0.0176 C.3      1 ZINC000003620786    0.0200
13     C13    10.5075    5.2885   -0.1724 C.3      1 ZINC000003620786    0.0600
14     O14     9.8332    6.3548    0.5011 O.3      1 ZINC000003620786   -0.3800
15     C15     8.4950    6.5692    0.0444 C.3      1 ZINC000003620786    0.0600
16     C16     7.6840    5.2850    0.2366 C.3      1 ZINC000003620786    0.0100
17     C17     6.4125    2.9895    0.3429 C.ar     1 ZINC000003620786   -0.1500
18     C18     5.6788    1.8241    0.4437 C.ar     1 ZINC000003620786   -0.0800
19     N19     3.3353   -1.5935    0.2070 N.ar     1 ZINC000003620786   -0.6000
20     C20     2.0064   -1.5943    0.2590 C.ar     1 ZINC000003620786    0.5200
21     N21     1.3084   -2.7699    0.4822 N.pl3    1 ZINC000003620786   -0.7100
22     C22     2.0341   -4.0295    0.6640 C.3      1 ZINC000003620786    0.1500
23     C23     2.4511   -4.1710    2.1293 C.3      1 ZINC000003620786   -0.1300
24     C24     3.2090   -5.4865    2.3191 C.3      1 ZINC000003620786   -0.1200
25     C25     2.3036   -6.6572    1.9312 C.3      1 ZINC000003620786   -0.1200
26     C26     1.8866   -6.5157    0.4659 C.3      1 ZINC000003620786   -0.1200
27     C27     1.1287   -5.2003    0.2761 C.3      1 ZINC000003620786   -0.1300
28     C28     1.3293   -0.3859    0.0834 C.ar     1 ZINC000003620786   -0.1700
29     N29     0.0037    0.0008    0.0705 N.pl3    1 ZINC000003620786   -0.5700
30     H30    -0.9157    1.9348   -0.2121 H        1 ZINC000003620786    0.2300
31     H31     5.8511   -1.3788   -0.0103 H        1 ZINC000003620786    0.4200
32     H32     7.6845   -0.2333   -1.3437 H        1 ZINC000003620786    0.1300
33     H33     8.9880    1.8455   -1.5305 H        1 ZINC000003620786    0.1300
34     H34     9.6897    3.7333    1.0762 H        1 ZINC000003620786    0.0500
35     H35    10.1963    3.1877   -0.5414 H        1 ZINC000003620786    0.0900
36     H36    11.5076    5.1696    0.2444 H        1 ZINC000003620786    0.1000
37     H37    10.5804    5.5180   -1.2355 H        1 ZINC000003620786    0.0600
38     H38     8.0396    7.3766    0.6180 H        1 ZINC000003620786    0.1000
39     H39     8.5094    6.8359   -1.0124 H        1 ZINC000003620786    0.0600
40     H40     6.6795    5.4257   -0.1625 H        1 ZINC000003620786    0.0900
41     H41     7.6243    5.0477    1.2987 H        1 ZINC000003620786    0.0600
42     H42     6.0577    3.8936    0.8152 H        1 ZINC000003620786    0.1300
43     H43     4.7518    1.8158    0.9979 H        1 ZINC000003620786    0.1400
44     H44     0.3391   -2.7591    0.5182 H        1 ZINC000003620786    0.4100
45     H45     2.9220   -4.0318    0.0317 H        1 ZINC000003620786    0.0900
46     H46     3.0961   -3.3369    2.4056 H        1 ZINC000003620786    0.0700
47     H47     1.5632   -4.1687    2.7615 H        1 ZINC000003620786    0.0600
48     H48     4.0969   -5.4887    1.6868 H        1 ZINC000003620786    0.0700
49     H49     3.5060   -5.5873    3.3630 H        1 ZINC000003620786    0.0600
50     H50     2.8436   -7.5944    2.0664 H        1 ZINC000003620786    0.0700
51     H51     1.4157   -6.6550    2.5634 H        1 ZINC000003620786    0.0600
52     H52     2.7745   -6.5180   -0.1664 H        1 ZINC000003620786    0.0700
53     H53     1.2416   -7.3498    0.1895 H        1 ZINC000003620786    0.0700
54     H54     0.2409   -5.1980    0.9083 H        1 ZINC000003620786    0.0700
55     H55     0.8317   -5.0995   -0.7678 H        1 ZINC000003620786    0.0700
56     H56    -0.7658   -0.5759    0.1979 H        1 ZINC000003620786    0.4200
@<TRIPOS>BOND
1     1     29    1
2     1     2     2
3     1     30    1
4     2     3     1
5     3     28    ar
6     3     4     ar
7     4     5     ar
8     5     6     1
9     5     19    ar
10    6     7     1
11    6     31    1
12    7     18    ar
13    7     8     ar
14    8     9     ar
15    8     32    1
16    9     10    ar
17    9     33    1
18    10    11    1
19    10    17    ar
20    11    16    1
21    11    12    1
22    12    13    1
23    12    34    1
24    12    35    1
25    13    14    1
26    13    36    1
27    13    37    1
28    14    15    1
29    15    16    1
30    15    38    1
31    15    39    1
32    16    40    1
33    16    41    1
34    17    18    ar
35    17    42    1
36    18    43    1
37    19    20    ar
38    20    21    1
39    20    28    ar
40    21    22    1
41    21    44    1
42    22    27    1
43    22    23    1
44    22    45    1
45    23    24    1
46    23    46    1
47    23    47    1
48    24    25    1
49    24    48    1
50    24    49    1
51    25    26    1
52    25    50    1
53    25    51    1
54    26    27    1
55    26    52    1
56    26    53    1
57    27    54    1
58    27    55    1
59    28    29    1
60    29    56    1
@<TRIPOS>SUBSTRUCTURE
1   ZINC000003620786 1     RESIDUE    1   A     ZIN   1
