@<TRIPOS>MOLECULE
ZINC000018847034
28    30    1     0     0
SMALL
USER_CHARGES
@<TRIPOS>ATOM
1      O1      0.0021   -0.0041    0.0020 O.2      1 ZINC000018847034   -0.5000
2      C2     -0.0145    1.2148    0.0087 C.2      1 ZINC000018847034    0.4400
3      C3     -1.2747    1.9819    0.0312 C.ar     1 ZINC000018847034   -0.3500
4      C4     -2.5028    1.3693   -0.2144 C.ar     1 ZINC000018847034    0.0000
5      C5     -3.6475    2.1148   -0.1926 C.ar     1 ZINC000018847034   -0.2600
6      C6     -3.5902    3.4813    0.0721 C.ar     1 ZINC000018847034    0.3100
7      O7     -4.7345    4.2114    0.0866 O.3      1 ZINC000018847034   -0.7000
8      C8     -2.3781    4.1024    0.3211 C.ar     1 ZINC000018847034   -0.2900
9      C9     -1.2045    3.3591    0.3074 C.ar     1 ZINC000018847034    0.1700
10     O10    -0.0207    3.9467    0.5636 O.3      1 ZINC000018847034   -0.2300
11     C11     1.1309    3.3433    0.2692 C.2      1 ZINC000018847034    0.1300
12     C12     1.2247    2.0160    0.0012 C.2      1 ZINC000018847034   -0.2700
13     C13     2.5347    1.3894   -0.3013 C.ar     1 ZINC000018847034   -0.0100
14     C14     2.7767    0.8517   -1.5643 C.ar     1 ZINC000018847034   -0.0800
15     C15     3.9958    0.2696   -1.8424 C.ar     1 ZINC000018847034   -0.1400
16     C16     4.9813    0.2190   -0.8662 C.ar     1 ZINC000018847034    0.0900
17     O17     6.1816   -0.3552   -1.1433 O.3      1 ZINC000018847034   -0.5000
18     C18     4.7436    0.7540    0.3924 C.ar     1 ZINC000018847034   -0.1400
19     C19     3.5283    1.3421    0.6751 C.ar     1 ZINC000018847034   -0.1000
20     H20    -2.5490    0.3103   -0.4212 H        1 ZINC000018847034    0.1100
21     H21    -4.6005    1.6431   -0.3816 H        1 ZINC000018847034    0.1100
22     H22    -2.3449    5.1625    0.5249 H        1 ZINC000018847034    0.1200
23     H23     2.0321    3.9380    0.2471 H        1 ZINC000018847034    0.1800
24     H24     2.0102    0.8904   -2.3242 H        1 ZINC000018847034    0.1300
25     H25     4.1838   -0.1475   -2.8208 H        1 ZINC000018847034    0.1300
26     H26     6.8394    0.2594   -1.4964 H        1 ZINC000018847034    0.3900
27     H27     5.5123    0.7131    1.1499 H        1 ZINC000018847034    0.1300
28     H28     3.3441    1.7585    1.6544 H        1 ZINC000018847034    0.1300
@<TRIPOS>BOND
1     1     2     2
2     2     12    1
3     2     3     1
4     3     9     ar
5     3     4     ar
6     4     5     ar
7     4     20    1
8     5     6     ar
9     5     21    1
10    6     7     1
11    6     8     ar
12    8     9     ar
13    8     22    1
14    9     10    1
15    10    11    1
16    11    12    2
17    11    23    1
18    12    13    1
19    13    19    ar
20    13    14    ar
21    14    15    ar
22    14    24    1
23    15    16    ar
24    15    25    1
25    16    17    1
26    16    18    ar
27    17    26    1
28    18    19    ar
29    18    27    1
30    19    28    1
@<TRIPOS>SUBSTRUCTURE
1   ZINC000018847034 1     RESIDUE    1   A     ZIN   1
