@<TRIPOS>MOLECULE
ZINC000006070476
  28   30    0    0    0
SMALL
USER_CHARGES
NO_NAME
@<TRIPOS>ATOM
    1 C1       -0.0184     1.5028     0.0103 C.3    1 <0>      -0.1200
    2 C2        0.0021    -0.0041     0.0020 C.ar   1 <0>       0.0200
    3 C3       -0.1009    -0.6952    -1.2202 C.ar   1 <0>      -0.1900
    4 C4       -0.2279     0.0369    -2.4871 C.2    1 <0>       0.3400
    5 O5       -0.2487     1.3895    -2.5100 O.3    1 <0>      -0.6600
    6 C6       -0.3241    -0.6887    -3.6449 C.2    1 <0>      -0.5000
    7 C7       -0.2992    -2.0883    -3.5896 C.2    1 <0>       0.5000
    8 O8       -0.3851    -2.7257    -4.6253 O.2    1 <0>      -0.5500
    9 O9       -0.1826    -2.7451    -2.4245 O.3    1 <0>      -0.2800
   10 C10      -0.0837    -2.0925    -1.2495 C.ar   1 <0>       0.1800
   11 C11       0.0384    -2.8035    -0.0399 C.ar   1 <0>      -0.1100
   12 C12       0.0604    -4.2122    -0.0264 C.ar   1 <0>       0.1700
   13 O13      -0.0367    -4.9069    -1.1886 O.3    1 <0>      -0.4800
   14 C14       0.1812    -4.8808     1.1708 C.ar   1 <0>      -0.2000
   15 C15       0.2821    -4.1760     2.3712 C.ar   1 <0>       0.1300
   16 O16       0.4010    -4.8561     3.5409 O.3    1 <0>      -0.5000
   17 C17       0.2629    -2.7978     2.3836 C.ar   1 <0>      -0.1600
   18 C18       0.1409    -2.0899     1.1792 C.ar   1 <0>       0.0200
   19 C19       0.1250    -0.6791     1.1704 C.ar   1 <0>      -0.1800
   20 H20       0.9793     1.8809    -0.2128 H      1 <0>       0.0700
   21 H21      -0.7196     1.8608    -0.7435 H      1 <0>       0.1100
   22 H22      -0.3296     1.8565     0.9932 H      1 <0>       0.0500
   23 H23      -0.4190    -0.1845    -4.5952 H      1 <0>       0.1300
   24 H24       0.8148    -5.0953    -1.6066 H      1 <0>       0.3900
   25 H25       0.1978    -5.9606     1.1813 H      1 <0>       0.1300
   26 H26       1.3149    -5.0398     3.7980 H      1 <0>       0.3900
   27 H27       0.3414    -2.2641     3.3193 H      1 <0>       0.1400
   28 H28       0.2071    -0.1348     2.0995 H      1 <0>       0.1300
@<TRIPOS>BOND
   1    1    2 1
   2    1   20 1
   3    1   21 1
   4    1   22 1
   5    2   19 ar
   6    2    3 ar
   7    3   10 ar
   8    3    4 1
   9    4    5 1
  10    4    6 2
  11    6    7 1
  12    6   23 1
  13    7    8 2
  14    7    9 1
  15    9   10 1
  16   10   11 ar
  17   11   18 ar
  18   11   12 ar
  19   12   13 1
  20   12   14 ar
  21   13   24 1
  22   14   15 ar
  23   14   25 1
  24   15   16 1
  25   15   17 ar
  26   16   26 1
  27   17   18 ar
  28   17   27 1
  29   18   19 ar
  30   19   28 1
