@<TRIPOS>MOLECULE
ZINC000000783201
  33   35    0    0    0
SMALL
USER_CHARGES
NO_NAME
@<TRIPOS>ATOM
    1 O1        0.0063     0.0012    -0.1384 O.2    1 <0>      -0.4200
    2 C2       -0.0124     1.2136    -0.0558 C.2    1 <0>       0.5700
    3 C3       -1.2160     2.0535    -0.0889 C.2    1 <0>      -0.1400
    4 Cl4      -2.8557     1.5068    -0.2507 Cl     1 <0>       0.0300
    5 C5       -0.7999     3.3399     0.0322 C.2    1 <0>       0.1800
    6 N6       -1.5951     4.4679     0.0502 N.pl3  1 <0>      -0.6200
    7 C7       -2.6034     4.6671     1.1033 C.3    1 <0>       0.1000
    8 C8       -2.4115     6.0669     1.6979 C.3    1 <0>       0.0500
    9 O9       -2.3985     7.0295     0.6410 O.3    1 <0>      -0.3700
   10 C10      -1.3230     6.8659    -0.2865 C.3    1 <0>       0.0400
   11 C11      -1.4553     5.5097    -0.9795 C.3    1 <0>       0.1000
   12 C12       0.6819     3.2931     0.1416 C.2    1 <0>       0.5500
   13 O13       1.4177     4.2504     0.2640 O.2    1 <0>      -0.4200
   14 N14       1.0651     2.0047     0.0865 N.am   1 <0>      -0.5200
   15 C15       2.3908     1.5548     0.1581 C.ar   1 <0>       0.1500
   16 C16       3.4274     2.4668     0.3025 C.ar   1 <0>      -0.1200
   17 C17       4.7333     2.0217     0.3729 C.ar   1 <0>      -0.0700
   18 C18       5.0091     0.6681     0.2996 C.ar   1 <0>      -0.0400
   19 Cl19      6.6513     0.1121     0.3883 Cl     1 <0>      -0.0400
   20 C20       3.9769    -0.2443     0.1559 C.ar   1 <0>      -0.0100
   21 Cl21      4.3262    -1.9424     0.0653 Cl     1 <0>      -0.0300
   22 C22       2.6685     0.1962     0.0904 C.ar   1 <0>      -0.1200
   23 H23      -3.6025     4.5838     0.6754 H      1 <0>       0.0800
   24 H24      -2.4736     3.9162     1.8826 H      1 <0>       0.0900
   25 H25      -3.2313     6.2877     2.3814 H      1 <0>       0.1100
   26 H26      -1.4655     6.1065     2.2380 H      1 <0>       0.0600
   27 H27      -1.3597     7.6616    -1.0306 H      1 <0>       0.1100
   28 H28      -0.3731     6.9084     0.2464 H      1 <0>       0.0600
   29 H29      -0.5671     5.3166    -1.5811 H      1 <0>       0.0900
   30 H30      -2.3390     5.5082    -1.6177 H      1 <0>       0.0800
   31 H31       3.2131     3.5237     0.3595 H      1 <0>       0.1700
   32 H32       5.5398     2.7312     0.4849 H      1 <0>       0.1600
   33 H33       1.8636    -0.5151    -0.0216 H      1 <0>       0.1700
@<TRIPOS>BOND
   1    1    2 2
   2    2   14 am
   3    2    3 1
   4    3    4 1
   5    3    5 2
   6    5    6 1
   7    5   12 1
   8    6   11 1
   9    6    7 1
  10    7    8 1
  11    7   23 1
  12    7   24 1
  13    8    9 1
  14    8   25 1
  15    8   26 1
  16    9   10 1
  17   10   11 1
  18   10   27 1
  19   10   28 1
  20   11   29 1
  21   11   30 1
  22   12   13 2
  23   12   14 am
  24   14   15 1
  25   15   22 ar
  26   15   16 ar
  27   16   17 ar
  28   16   31 1
  29   17   18 ar
  30   17   32 1
  31   18   19 1
  32   18   20 ar
  33   20   21 1
  34   20   22 ar
  35   22   33 1
