@<TRIPOS>MOLECULE
ZINC000008398879
74    79    1     0     0
SMALL
USER_CHARGES
@<TRIPOS>ATOM
1      C1     -1.6098    1.8780   -2.5064 C.3      1 ZINC000008398879   -0.1800
2      C2     -1.4355    0.3599   -2.5838 C.3      1 ZINC000008398879    0.0200
3      C3     -0.0226   -0.0149   -2.1318 C.3      1 ZINC000008398879   -0.1900
4      N4     -2.4186   -0.2912   -1.7077 N.4      1 ZINC000008398879   -0.5000
5      H5     -2.2259   -0.0489   -0.7474 H        1 ZINC000008398879    0.4300
6      H6     -3.3464    0.0203   -1.9534 H        1 ZINC000008398879    0.4300
7      C7     -2.3317   -1.7483   -1.8721 C.3      1 ZINC000008398879   -0.0500
8      C8     -3.3557   -2.4265   -0.9597 C.3      1 ZINC000008398879    0.0900
9      H9     -4.3580   -2.0900   -1.2251 H        1 ZINC000008398879    0.1300
10     O10    -3.0828   -2.0834    0.4004 O.3      1 ZINC000008398879   -0.5400
11     C11    -3.2653   -3.9442   -1.1309 C.3      1 ZINC000008398879    0.0400
12     O12    -4.2964   -4.5721   -0.3663 O.3      1 ZINC000008398879   -0.3500
13     C13    -4.2574   -6.0001   -0.4003 C.3      1 ZINC000008398879    0.0600
14     C14    -4.3713   -6.5475    1.0239 C.3      1 ZINC000008398879    0.1100
15     N15    -3.2198   -6.1014    1.8120 N.pl3    1 ZINC000008398879   -0.5000
16     C16    -1.9885   -6.7316    1.8396 C.ar     1 ZINC000008398879    0.1400
17     C17    -1.1450   -6.0167    2.7026 C.ar     1 ZINC000008398879   -0.1000
18     C18     0.1644   -6.4440    2.9108 C.ar     1 ZINC000008398879   -0.0600
19     C19     0.6275   -7.5706    2.2663 C.ar     1 ZINC000008398879   -0.1500
20     C20    -0.2048   -8.2783    1.4125 C.ar     1 ZINC000008398879   -0.0800
21     C21    -1.5025   -7.8672    1.1982 C.ar     1 ZINC000008398879   -0.1500
22     C22    -1.9369   -4.8854    3.2193 C.ar     1 ZINC000008398879   -0.1100
23     C23    -3.2060   -4.9862    2.6306 C.ar     1 ZINC000008398879    0.1500
24     C24    -4.1772   -4.0382    2.9390 C.ar     1 ZINC000008398879   -0.1200
25     C25    -3.8880   -3.0139    3.8144 C.ar     1 ZINC000008398879   -0.0800
26     C26    -2.6327   -2.9156    4.3950 C.ar     1 ZINC000008398879   -0.1500
27     C27    -1.6568   -3.8426    4.0994 C.ar     1 ZINC000008398879   -0.0700
28     C28    -5.4235   -6.5222   -1.2421 C.3      1 ZINC000008398879    0.1000
29     N29    -5.2506   -6.0966   -2.6332 N.pl3    1 ZINC000008398879   -0.5000
30     C30    -5.7348   -4.9145   -3.1644 C.ar     1 ZINC000008398879    0.1500
31     C31    -5.3736   -4.8576   -4.5186 C.ar     1 ZINC000008398879   -0.1000
32     C32    -5.7417   -3.7601   -5.2934 C.ar     1 ZINC000008398879   -0.0600
33     C33    -6.4613   -2.7314   -4.7250 C.ar     1 ZINC000008398879   -0.1500
34     C34    -6.8189   -2.7857   -3.3864 C.ar     1 ZINC000008398879   -0.0900
35     C35    -6.4620   -3.8660   -2.6088 C.ar     1 ZINC000008398879   -0.1400
36     C36    -4.6235   -6.0945   -4.8038 C.ar     1 ZINC000008398879   -0.1100
37     C37    -4.5747   -6.8164   -3.6022 C.ar     1 ZINC000008398879    0.1400
38     C38    -3.9196   -8.0439   -3.5711 C.ar     1 ZINC000008398879   -0.1400
39     C39    -3.3273   -8.5389   -4.7128 C.ar     1 ZINC000008398879   -0.0800
40     C40    -3.3762   -7.8237   -5.8996 C.ar     1 ZINC000008398879   -0.1500
41     C41    -4.0171   -6.6047   -5.9494 C.ar     1 ZINC000008398879   -0.0600
42     H42    -0.8803    2.3611   -3.1564 H        1 ZINC000008398879    0.1100
43     H43    -2.6164    2.1450   -2.8283 H        1 ZINC000008398879    0.0800
44     H44    -1.4570    2.2094   -1.4793 H        1 ZINC000008398879    0.0800
45     H45    -1.5883    0.0285   -3.6108 H        1 ZINC000008398879    0.1400
46     H46     0.1303    0.3165   -1.1047 H        1 ZINC000008398879    0.0800
47     H47     0.1016   -1.0964   -2.1869 H        1 ZINC000008398879    0.0800
48     H48     0.7069    0.4682   -2.7818 H        1 ZINC000008398879    0.1100
49     H49    -2.5400   -2.0100   -2.9095 H        1 ZINC000008398879    0.1400
50     H50    -1.3295   -2.0848   -1.6067 H        1 ZINC000008398879    0.1400
51     H51    -2.2355   -2.4156    0.7274 H        1 ZINC000008398879    0.3900
52     H52    -3.3872   -4.1989   -2.1837 H        1 ZINC000008398879    0.0700
53     H53    -2.2924   -4.2916   -0.7833 H        1 ZINC000008398879    0.0600
54     H54    -3.3159   -6.3275   -0.8412 H        1 ZINC000008398879    0.0800
55     H55    -5.2895   -6.1799    1.4820 H        1 ZINC000008398879    0.1000
56     H56    -4.3910   -7.6369    0.9939 H        1 ZINC000008398879    0.1000
57     H57     0.8146   -5.8939    3.5749 H        1 ZINC000008398879    0.1300
58     H58     1.6424   -7.9033    2.4266 H        1 ZINC000008398879    0.1300
59     H59     0.1672   -9.1597    0.9112 H        1 ZINC000008398879    0.1300
60     H60    -2.1424   -8.4257    0.5311 H        1 ZINC000008398879    0.1200
61     H61    -5.1579   -4.1052    2.4918 H        1 ZINC000008398879    0.1200
62     H62    -4.6457   -2.2812    4.0500 H        1 ZINC000008398879    0.1200
63     H63    -2.4182   -2.1080    5.0793 H        1 ZINC000008398879    0.1200
64     H64    -0.6799   -3.7642    4.5531 H        1 ZINC000008398879    0.1200
65     H65    -5.4464   -7.6110   -1.1955 H        1 ZINC000008398879    0.1000
66     H66    -6.3600   -6.1221   -0.8534 H        1 ZINC000008398879    0.1000
67     H67    -5.4636   -3.7153   -6.3360 H        1 ZINC000008398879    0.1200
68     H68    -6.7476   -1.8797   -5.3243 H        1 ZINC000008398879    0.1300
69     H69    -7.3823   -1.9745   -2.9495 H        1 ZINC000008398879    0.1300
70     H70    -6.7456   -3.8983   -1.5672 H        1 ZINC000008398879    0.1200
71     H71    -3.8751   -8.6088   -2.6517 H        1 ZINC000008398879    0.1200
72     H72    -2.8204   -9.4920   -4.6827 H        1 ZINC000008398879    0.1300
73     H73    -2.9079   -8.2220   -6.7875 H        1 ZINC000008398879    0.1300
74     H74    -4.0542   -6.0495   -6.8751 H        1 ZINC000008398879    0.1300
@<TRIPOS>BOND
1     1     2     1
2     1     42    1
3     1     43    1
4     1     44    1
5     2     3     1
6     2     4     1
7     2     45    1
8     3     46    1
9     3     47    1
10    3     48    1
11    4     5     1
12    4     6     1
13    4     7     1
14    7     8     1
15    7     49    1
16    7     50    1
17    8     9     1
18    8     10    1
19    8     11    1
20    10    51    1
21    11    12    1
22    11    52    1
23    11    53    1
24    12    13    1
25    13    14    1
26    13    28    1
27    13    54    1
28    14    15    1
29    14    55    1
30    14    56    1
31    15    23    1
32    15    16    1
33    16    21    ar
34    16    17    ar
35    17    18    ar
36    17    22    1
37    18    19    ar
38    18    57    1
39    19    20    ar
40    19    58    1
41    20    21    ar
42    20    59    1
43    21    60    1
44    22    27    ar
45    22    23    ar
46    23    24    ar
47    24    25    ar
48    24    61    1
49    25    26    ar
50    25    62    1
51    26    27    ar
52    26    63    1
53    27    64    1
54    28    29    1
55    28    65    1
56    28    66    1
57    29    37    1
58    29    30    1
59    30    35    ar
60    30    31    ar
61    31    32    ar
62    31    36    1
63    32    33    ar
64    32    67    1
65    33    34    ar
66    33    68    1
67    34    35    ar
68    34    69    1
69    35    70    1
70    36    41    ar
71    36    37    ar
72    37    38    ar
73    38    39    ar
74    38    71    1
75    39    40    ar
76    39    72    1
77    40    41    ar
78    40    73    1
79    41    74    1
@<TRIPOS>SUBSTRUCTURE
1   ZINC000008398879 1     RESIDUE    1   A     ZIN   1
