@<TRIPOS>MOLECULE
ZINC000014945665
55    57    1     0     0
SMALL
USER_CHARGES
@<TRIPOS>ATOM
1      C1      0.9034    1.2710    0.7563 C.3      1 ZINC000014945665   -0.1500
2      C2      0.7479   -0.2409    0.5808 C.3      1 ZINC000014945665   -0.1200
3      C3      1.2546   -0.6483   -0.8042 C.3      1 ZINC000014945665   -0.1200
4      C4      1.0991   -2.1603   -0.9797 C.3      1 ZINC000014945665    0.0600
5      O5      1.5723   -2.5408   -2.2732 O.3      1 ZINC000014945665   -0.3000
6      C6      1.5045   -3.8567   -2.5906 C.ar     1 ZINC000014945665    0.2800
7      C7      0.9911   -4.7789   -1.6924 C.ar     1 ZINC000014945665   -0.3600
8      C8      0.9357   -6.1221   -2.0495 C.ar     1 ZINC000014945665    0.4800
9      N9      0.4226   -7.0443   -1.1519 N.pl3    1 ZINC000014945665   -0.6600
10     C10     0.4747   -8.4096   -1.4460 C.ar     1 ZINC000014945665    0.2300
11     C11     1.5847   -8.9409   -2.0905 C.ar     1 ZINC000014945665   -0.1300
12     C12     1.6330  -10.2905   -2.3797 C.ar     1 ZINC000014945665    0.0000
13     C13     0.5780  -11.1127   -2.0285 C.ar     1 ZINC000014945665   -0.7000
14     S14     0.6438  -12.8339   -2.3995 S.o2     1 ZINC000014945665    2.7000
15     N15     1.3433  -13.5886   -1.1020 N.am     1 ZINC000014945665   -1.2500
16     O16    -0.7026  -13.2856   -2.4484 O.2      1 ZINC000014945665   -0.9600
17     O17     1.5512  -12.9764   -3.4837 O.2      1 ZINC000014945665   -0.9600
18     C18    -0.5283  -10.5871   -1.3865 C.ar     1 ZINC000014945665    0.0100
19     C19    -0.5808   -9.2394   -1.0895 C.ar     1 ZINC000014945665   -0.1700
20     N20     1.3652   -6.5358   -3.2347 N.ar     1 ZINC000014945665   -0.6000
21     C21     1.8640   -5.6974   -4.1284 C.ar     1 ZINC000014945665    0.5100
22     N22     2.2985   -6.1752   -5.3502 N.pl3    1 ZINC000014945665   -0.8300
23     C23     1.9494   -4.3219   -3.8459 C.ar     1 ZINC000014945665   -0.3400
24     C24     2.5018   -3.3889   -4.8353 C.2      1 ZINC000014945665    0.4700
25     O25     3.6802   -3.0869   -4.7954 O.2      1 ZINC000014945665   -0.4200
26     C26     1.6281   -2.8170   -5.8786 C.ar     1 ZINC000014945665   -0.2400
27     C27     0.2513   -3.0655   -5.8574 C.ar     1 ZINC000014945665    0.1900
28     F28    -0.2841   -3.8306   -4.8811 F        1 ZINC000014945665   -0.1100
29     C29    -0.5594   -2.5256   -6.8380 C.ar     1 ZINC000014945665   -0.1800
30     C30    -0.0132   -1.7420   -7.8384 C.ar     1 ZINC000014945665   -0.0300
31     C31     1.3467   -1.4913   -7.8670 C.ar     1 ZINC000014945665   -0.1800
32     C32     2.1713   -2.0184   -6.8911 C.ar     1 ZINC000014945665    0.1900
33     F33     3.4993   -1.7719   -6.9205 F        1 ZINC000014945665   -0.1100
34     H34     1.9548    1.5418    0.6599 H        1 ZINC000014945665    0.0600
35     H35     0.3237    1.7872   -0.0091 H        1 ZINC000014945665    0.0600
36     H36     0.5424    1.5613    1.7429 H        1 ZINC000014945665    0.0600
37     H37     1.3275   -0.7570    1.3461 H        1 ZINC000014945665    0.0700
38     H38    -0.3036   -0.5116    0.6771 H        1 ZINC000014945665    0.0700
39     H39     0.6749   -0.1322   -1.5695 H        1 ZINC000014945665    0.0800
40     H40     2.3060   -0.3776   -0.9005 H        1 ZINC000014945665    0.0800
41     H41     1.6788   -2.6764   -0.2144 H        1 ZINC000014945665    0.0700
42     H42     0.0476   -2.4310   -0.8833 H        1 ZINC000014945665    0.0700
43     H43     0.6376   -4.4576   -0.7238 H        1 ZINC000014945665    0.1400
44     H44     0.0270   -6.7423   -0.3192 H        1 ZINC000014945665    0.4200
45     H45     2.4088   -8.2993   -2.3654 H        1 ZINC000014945665    0.1400
46     H46     2.4955  -10.7041   -2.8811 H        1 ZINC000014945665    0.1400
47     H47     1.1026  -14.5029   -0.8850 H        1 ZINC000014945665    0.4200
48     H48     1.9937  -13.1164   -0.5590 H        1 ZINC000014945665    0.4200
49     H49    -1.3505  -11.2320   -1.1136 H        1 ZINC000014945665    0.1400
50     H50    -1.4449   -8.8296   -0.5878 H        1 ZINC000014945665    0.1400
51     H51     2.1663   -7.1081   -5.5809 H        1 ZINC000014945665    0.4100
52     H52     2.7356   -5.5778   -5.9770 H        1 ZINC000014945665    0.4100
53     H53    -1.6223   -2.7164   -6.8232 H        1 ZINC000014945665    0.1500
54     H54    -0.6524   -1.3238   -8.6020 H        1 ZINC000014945665    0.1500
55     H55     1.7649   -0.8786   -8.6520 H        1 ZINC000014945665    0.1500
@<TRIPOS>BOND
1     1     2     1
2     1     34    1
3     1     35    1
4     1     36    1
5     2     3     1
6     2     37    1
7     2     38    1
8     3     4     1
9     3     39    1
10    3     40    1
11    4     5     1
12    4     41    1
13    4     42    1
14    5     6     1
15    6     23    ar
16    6     7     ar
17    7     8     ar
18    7     43    1
19    8     9     1
20    8     20    ar
21    9     10    1
22    9     44    1
23    10    19    ar
24    10    11    ar
25    11    12    ar
26    11    45    1
27    12    13    ar
28    12    46    1
29    13    14    1
30    13    18    ar
31    14    15    am
32    14    16    2
33    14    17    2
34    15    47    1
35    15    48    1
36    18    19    ar
37    18    49    1
38    19    50    1
39    20    21    ar
40    21    22    1
41    21    23    ar
42    22    51    1
43    22    52    1
44    23    24    1
45    24    25    2
46    24    26    1
47    26    32    ar
48    26    27    ar
49    27    28    1
50    27    29    ar
51    29    30    ar
52    29    53    1
53    30    31    ar
54    30    54    1
55    31    32    ar
56    31    55    1
57    32    33    1
@<TRIPOS>SUBSTRUCTURE
1   ZINC000014945665 1     RESIDUE    1   A     ZIN   1
