@<TRIPOS>MOLECULE
ZINC000018183490
45    52    1     0     0
SMALL
USER_CHARGES
@<TRIPOS>ATOM
1      O1      0.0021   -0.0041    0.0020 O.2      1 ZINC000018183490   -0.4600
2      C2     -0.0144    1.2109    0.0087 C.2      1 ZINC000018183490    0.5800
3      N3     -1.1170    1.9804    0.0292 N.am     1 ZINC000018183490   -0.6800
4      C4     -0.7923    3.2853    0.0314 C.2      1 ZINC000018183490    0.5800
5      O5     -1.5787    4.2115    0.0481 O.2      1 ZINC000018183490   -0.4600
6      C6      0.6768    3.4049    0.0107 C.ar     1 ZINC000018183490   -0.1100
7      C7      1.1711    2.0871    0.0021 C.ar     1 ZINC000018183490   -0.1100
8      C8      2.5530    1.8508   -0.0166 C.ar     1 ZINC000018183490   -0.0100
9      C9      3.4319    2.9404   -0.0983 C.ar     1 ZINC000018183490    0.1400
10     C10     2.9419    4.2498   -0.0735 C.ar     1 ZINC000018183490    0.1400
11     C11     1.5628    4.4917    0.0101 C.ar     1 ZINC000018183490   -0.0100
12     C12     1.4275    5.9434    0.0985 C.ar     1 ZINC000018183490   -0.1100
13     C13     2.7363    6.4808    0.0448 C.ar     1 ZINC000018183490    0.1500
14     C14     2.9394    7.8579    0.1212 C.ar     1 ZINC000018183490   -0.1500
15     C15     1.8150    8.6573    0.2395 C.ar     1 ZINC000018183490   -0.0700
16     C16     0.5360    8.1305    0.2823 C.ar     1 ZINC000018183490   -0.1500
17     C17     0.3061    6.7670    0.2137 C.ar     1 ZINC000018183490   -0.0400
18     N18     3.6322    5.4505   -0.1001 N.pl3    1 ZINC000018183490   -0.5100
19     C19     5.0772    5.5609   -0.3252 C.3      1 ZINC000018183490    0.3000
20     H20     5.3191    6.5257   -0.7711 H        1 ZINC000018183490    0.1500
21     C21     5.8080    5.3929    1.0226 C.3      1 ZINC000018183490   -0.1600
22     C22     6.3485    3.9482    1.0101 C.3      1 ZINC000018183490   -0.1600
23     C23     5.9020    3.3632   -0.3451 C.3      1 ZINC000018183490    0.3000
24     H24     6.7213    2.8155   -0.8107 H        1 ZINC000018183490    0.1500
25     O25     5.5319    4.4973   -1.1629 O.3      1 ZINC000018183490   -0.3500
26     N26     4.7416    2.4908   -0.1412 N.pl3    1 ZINC000018183490   -0.5100
27     C27     4.7456    1.1246   -0.0043 C.ar     1 ZINC000018183490    0.1500
28     C28     5.8048    0.2222    0.0738 C.ar     1 ZINC000018183490   -0.1500
29     C29     5.4847   -1.1198    0.1971 C.ar     1 ZINC000018183490   -0.0700
30     C30     4.1756   -1.5648    0.2422 C.ar     1 ZINC000018183490   -0.1500
31     C31     3.1045   -0.6898    0.1714 C.ar     1 ZINC000018183490   -0.0400
32     C32     3.4066    0.6677    0.0552 C.ar     1 ZINC000018183490   -0.1100
33     H33    -2.0252    1.6398    0.0409 H        1 ZINC000018183490    0.4300
34     H34     3.9317    8.2831    0.0898 H        1 ZINC000018183490    0.1300
35     H35     1.9403    9.7283    0.3007 H        1 ZINC000018183490    0.1300
36     H36    -0.3057    8.8012    0.3721 H        1 ZINC000018183490    0.1300
37     H37    -0.6935    6.3597    0.2477 H        1 ZINC000018183490    0.1500
38     H38     6.6306    6.1040    1.0983 H        1 ZINC000018183490    0.1000
39     H39     5.1117    5.5292    1.8501 H        1 ZINC000018183490    0.1000
40     H40     7.4362    3.9505    1.0813 H        1 ZINC000018183490    0.1100
41     H41     5.9161    3.3753    1.8304 H        1 ZINC000018183490    0.1000
42     H42     6.8316    0.5551    0.0394 H        1 ZINC000018183490    0.1300
43     H43     6.2842   -1.8432    0.2598 H        1 ZINC000018183490    0.1300
44     H44     3.9837   -2.6236    0.3347 H        1 ZINC000018183490    0.1300
45     H45     2.0839   -1.0411    0.2072 H        1 ZINC000018183490    0.1500
@<TRIPOS>BOND
1     1     2     2
2     2     7     1
3     2     3     am
4     3     4     am
5     3     33    1
6     4     5     2
7     4     6     1
8     6     11    ar
9     6     7     ar
10    7     8     ar
11    8     32    1
12    8     9     ar
13    9     26    1
14    9     10    ar
15    10    18    1
16    10    11    ar
17    11    12    1
18    12    17    ar
19    12    13    ar
20    13    14    ar
21    13    18    1
22    14    15    ar
23    14    34    1
24    15    16    ar
25    15    35    1
26    16    17    ar
27    16    36    1
28    17    37    1
29    18    19    1
30    19    20    1
31    19    25    1
32    19    21    1
33    21    22    1
34    21    38    1
35    21    39    1
36    22    23    1
37    22    40    1
38    22    41    1
39    23    24    1
40    23    25    1
41    23    26    1
42    26    27    1
43    27    32    ar
44    27    28    ar
45    28    29    ar
46    28    42    1
47    29    30    ar
48    29    43    1
49    30    31    ar
50    30    44    1
51    31    32    ar
52    31    45    1
@<TRIPOS>SUBSTRUCTURE
1   ZINC000018183490 1     RESIDUE    1   A     ZIN   1
