@<TRIPOS>MOLECULE
ZINC000044386443
87    90    1     0     0
SMALL
USER_CHARGES
@<TRIPOS>ATOM
1      C1      0.5051    1.0791   -0.0246 C.3      1 ZINC000044386443   -0.1500
2      C2      0.3953   -0.4006    0.2386 C.2      1 ZINC000044386443    0.4500
3      O3      1.3945   -1.0740    0.3290 O.2      1 ZINC000044386443   -0.4900
4      O4     -0.8125   -0.9707    0.3727 O.3      1 ZINC000044386443   -0.3400
5      C5     -0.8424   -2.4003    0.6249 C.3      1 ZINC000044386443    0.1000
6      H6      0.0257   -2.8683    0.1607 H        1 ZINC000044386443    0.1000
7      C7     -0.8094   -2.6511    2.1327 C.3      1 ZINC000044386443    0.0900
8      H8     -0.8350   -3.7239    2.3240 H        1 ZINC000044386443    0.0700
9      O9      0.3872   -2.0966    2.6828 O.3      1 ZINC000044386443   -0.5500
10     C10    -2.0269   -1.9870    2.7805 C.3      1 ZINC000044386443   -0.1500
11     C11    -3.3017   -2.5972    2.1971 C.3      1 ZINC000044386443   -0.1100
12     C12    -3.3442   -2.3604    0.6848 C.3      1 ZINC000044386443   -0.0400
13     C13    -3.3386   -0.8552    0.4106 C.3      1 ZINC000044386443   -0.1600
14     C14    -4.6289   -2.9466    0.1224 C.3      1 ZINC000044386443   -0.0400
15     H15    -4.8034   -3.8966    0.6275 H        1 ZINC000044386443    0.0800
16     C16    -5.8119   -2.0357    0.4408 C.3      1 ZINC000044386443   -0.1200
17     C17    -7.1035   -2.5231   -0.2383 C.3      1 ZINC000044386443   -0.1100
18     C18    -6.8444   -2.5681   -1.7258 C.3      1 ZINC000044386443   -0.0500
19     C19    -6.2216   -1.2429   -2.1695 C.3      1 ZINC000044386443   -0.1500
20     C20    -5.8211   -3.7083   -1.9927 C.3      1 ZINC000044386443   -0.0600
21     H21    -6.1637   -4.6508   -1.5657 H        1 ZINC000044386443    0.0900
22     C22    -5.8326   -3.7656   -3.5222 C.3      1 ZINC000044386443   -0.1200
23     C23    -7.3450   -3.6351   -3.8592 C.3      1 ZINC000044386443   -0.1100
24     C24    -7.9996   -2.9133   -2.6523 C.3      1 ZINC000044386443   -0.0700
25     H25    -8.7027   -3.5775   -2.1497 H        1 ZINC000044386443    0.0700
26     C26    -8.7108   -1.6405   -3.1159 C.3      1 ZINC000044386443   -0.1100
27     H27    -8.0071   -1.0076   -3.6567 H        1 ZINC000044386443    0.0800
28     C28    -9.2464   -0.8834   -1.8990 C.3      1 ZINC000044386443   -0.1600
29     C29    -9.8740   -2.0130   -4.0374 C.3      1 ZINC000044386443    0.1100
30     H30   -10.5284   -2.7207   -3.5285 H        1 ZINC000044386443    0.0900
31     O31    -9.3636   -2.6098   -5.2313 O.3      1 ZINC000044386443   -0.5500
32     C32   -10.6650   -0.7531   -4.3949 C.3      1 ZINC000044386443   -0.1600
33     C33   -11.8985   -1.1404   -5.2131 C.3      1 ZINC000044386443   -0.1100
34     C34   -12.6896    0.1194   -5.5706 C.3      1 ZINC000044386443   -0.1000
35     C35   -13.8528   -0.2531   -6.4921 C.3      1 ZINC000044386443   -0.1500
36     C36   -13.2361    0.7584   -4.2923 C.3      1 ZINC000044386443   -0.1500
37     C37    -4.5488   -3.2276   -1.3553 C.2      1 ZINC000044386443   -0.0600
38     C38    -3.4654   -3.1120   -2.0574 C.2      1 ZINC000044386443   -0.1900
39     C39    -2.1665   -2.6254   -1.4829 C.3      1 ZINC000044386443    0.1300
40     H40    -2.0791   -1.5504   -1.6402 H        1 ZINC000044386443    0.1100
41     O41    -1.0624   -3.3026   -2.1391 O.3      1 ZINC000044386443   -0.3500
42     C42    -0.5583   -2.7216   -3.2391 C.2      1 ZINC000044386443    0.4600
43     C43     0.5887   -3.3664   -3.9736 C.3      1 ZINC000044386443   -0.1500
44     O44    -1.0243   -1.6816   -3.6404 O.2      1 ZINC000044386443   -0.5100
45     C45    -2.1210   -2.9956    0.0288 C.3      1 ZINC000044386443   -0.0600
46     H46    -2.0969   -4.0795    0.1413 H        1 ZINC000044386443    0.1100
47     H47     1.5561    1.3572   -0.1030 H        1 ZINC000044386443    0.1000
48     H48    -0.0052    1.3212   -0.9568 H        1 ZINC000044386443    0.1000
49     H49     0.0439    1.6293    0.7956 H        1 ZINC000044386443    0.1000
50     H50     0.4746   -2.2192    3.6380 H        1 ZINC000044386443    0.3800
51     H51    -2.0029   -2.1541    3.8574 H        1 ZINC000044386443    0.0700
52     H52    -2.0092   -0.9164    2.5767 H        1 ZINC000044386443    0.0800
53     H53    -3.3148   -3.6687    2.3967 H        1 ZINC000044386443    0.0700
54     H54    -4.1714   -2.1322    2.6614 H        1 ZINC000044386443    0.0800
55     H55    -2.4985   -0.3944    0.9302 H        1 ZINC000044386443    0.0900
56     H56    -3.2424   -0.6815   -0.6611 H        1 ZINC000044386443    0.0600
57     H57    -4.2709   -0.4174    0.7674 H        1 ZINC000044386443    0.0600
58     H58    -5.9638   -2.0143    1.5200 H        1 ZINC000044386443    0.0600
59     H59    -5.5870   -1.0268    0.0947 H        1 ZINC000044386443    0.0800
60     H60    -7.3589   -3.5192    0.1233 H        1 ZINC000044386443    0.0600
61     H61    -7.9180   -1.8308   -0.0251 H        1 ZINC000044386443    0.0700
62     H62    -5.2881   -1.0817   -1.6303 H        1 ZINC000044386443    0.0600
63     H63    -6.0215   -1.2760   -3.2405 H        1 ZINC000044386443    0.0500
64     H64    -6.9113   -0.4270   -1.9537 H        1 ZINC000044386443    0.0600
65     H65    -5.2696   -2.9331   -3.9442 H        1 ZINC000044386443    0.0700
66     H66    -5.4389   -4.7184   -3.8760 H        1 ZINC000044386443    0.0600
67     H67    -7.4769   -3.0439   -4.7654 H        1 ZINC000044386443    0.0800
68     H68    -7.7863   -4.6233   -3.9888 H        1 ZINC000044386443    0.0600
69     H69    -9.9501   -1.5163   -1.3582 H        1 ZINC000044386443    0.0500
70     H70    -8.4177   -0.6181   -1.2425 H        1 ZINC000044386443    0.0700
71     H71    -9.7531    0.0234   -2.2293 H        1 ZINC000044386443    0.0600
72     H72    -8.7721   -2.0352   -5.7364 H        1 ZINC000044386443    0.3700
73     H73   -10.9790   -0.2495   -3.4806 H        1 ZINC000044386443    0.0800
74     H74   -10.0360   -0.0832   -4.9811 H        1 ZINC000044386443    0.0600
75     H75   -11.5846   -1.6440   -6.1274 H        1 ZINC000044386443    0.0700
76     H76   -12.5276   -1.8104   -4.6269 H        1 ZINC000044386443    0.0600
77     H77   -12.0352    0.8272   -6.0795 H        1 ZINC000044386443    0.0700
78     H78   -14.5072   -0.9608   -5.9832 H        1 ZINC000044386443    0.0500
79     H79   -14.4164    0.6445   -6.7468 H        1 ZINC000044386443    0.0500
80     H80   -13.4635   -0.7083   -7.4027 H        1 ZINC000044386443    0.0500
81     H81   -13.8905    0.0507   -3.7834 H        1 ZINC000044386443    0.0500
82     H82   -12.4074    1.0238   -3.6358 H        1 ZINC000044386443    0.0500
83     H83   -13.7996    1.6560   -4.5470 H        1 ZINC000044386443    0.0500
84     H84    -3.4985   -3.3781   -3.1036 H        1 ZINC000044386443    0.1100
85     H85     0.2911   -4.3587   -4.3127 H        1 ZINC000044386443    0.1000
86     H86     0.8592   -2.7544   -4.8340 H        1 ZINC000044386443    0.1000
87     H87     1.4455   -3.4527   -3.3053 H        1 ZINC000044386443    0.1000
@<TRIPOS>BOND
1     1     2     1
2     1     47    1
3     1     48    1
4     1     49    1
5     2     3     2
6     2     4     1
7     4     5     1
8     5     6     1
9     5     45    1
10    5     7     1
11    7     8     1
12    7     9     1
13    7     10    1
14    9     50    1
15    10    11    1
16    10    51    1
17    10    52    1
18    11    12    1
19    11    53    1
20    11    54    1
21    12    45    1
22    12    13    1
23    12    14    1
24    13    55    1
25    13    56    1
26    13    57    1
27    14    15    1
28    14    37    1
29    14    16    1
30    16    17    1
31    16    58    1
32    16    59    1
33    17    18    1
34    17    60    1
35    17    61    1
36    18    24    1
37    18    19    1
38    18    20    1
39    19    62    1
40    19    63    1
41    19    64    1
42    20    21    1
43    20    22    1
44    20    37    1
45    22    23    1
46    22    65    1
47    22    66    1
48    23    24    1
49    23    67    1
50    23    68    1
51    24    25    1
52    24    26    1
53    26    27    1
54    26    28    1
55    26    29    1
56    28    69    1
57    28    70    1
58    28    71    1
59    29    30    1
60    29    31    1
61    29    32    1
62    31    72    1
63    32    33    1
64    32    73    1
65    32    74    1
66    33    34    1
67    33    75    1
68    33    76    1
69    34    35    1
70    34    36    1
71    34    77    1
72    35    78    1
73    35    79    1
74    35    80    1
75    36    81    1
76    36    82    1
77    36    83    1
78    37    38    2
79    38    39    1
80    38    84    1
81    39    40    1
82    39    41    1
83    39    45    1
84    41    42    1
85    42    43    1
86    42    44    2
87    43    85    1
88    43    86    1
89    43    87    1
90    45    46    1
@<TRIPOS>SUBSTRUCTURE
1   ZINC000044386443 1     RESIDUE    1   A     ZIN   1
