@<TRIPOS>MOLECULE
ZINC000001530757
38    38    1     0     0
SMALL
USER_CHARGES
@<TRIPOS>ATOM
1      C1      1.9435    1.6483    1.5535 C.3      1 ZINC000001530757   -0.1900
2      C2      2.0468    0.1268    1.4295 C.3      1 ZINC000001530757   -0.0200
3      N3      0.6983   -0.4507    1.3510 N.4      1 ZINC000001530757   -0.3900
4      H4      0.1559   -0.1478    2.1461 H        1 ZINC000001530757    0.4300
5      C5      0.0452   -0.0033    0.1136 C.3      1 ZINC000001530757   -0.0200
6      C6     -1.4038   -0.4940    0.0955 C.3      1 ZINC000001530757   -0.1900
7      C7      0.7926   -1.9167    1.3525 C.3      1 ZINC000001530757   -0.0100
8      C8      1.3451   -2.3908    2.6982 C.3      1 ZINC000001530757    0.0300
9      O9      0.3965   -2.0722    3.7503 O.3      1 ZINC000001530757   -0.3700
10     C10     0.7739   -2.3397    5.0160 C.2      1 ZINC000001530757    0.5200
11     O11     1.8990   -2.7388    5.2430 O.2      1 ZINC000001530757   -0.5000
12     C12    -0.1778   -2.1481    6.1248 C.ar     1 ZINC000001530757   -0.2100
13     C13    -1.5064   -1.8032    5.8565 C.ar     1 ZINC000001530757   -0.0100
14     C14    -2.3892   -1.6257    6.8904 C.ar     1 ZINC000001530757   -0.2200
15     C15    -1.9643   -1.7880    8.2064 C.ar     1 ZINC000001530757    0.2700
16     N16    -2.8619   -1.6069    9.2523 N.pl3    1 ZINC000001530757   -0.8600
17     C17    -0.6425   -2.1319    8.4771 C.ar     1 ZINC000001530757   -0.2100
18     C18     0.2441   -2.3165    7.4476 C.ar     1 ZINC000001530757    0.0100
19     H19     1.3865    1.9023    2.4553 H        1 ZINC000001530757    0.0800
20     H20     2.9441    2.0768    1.6117 H        1 ZINC000001530757    0.1100
21     H21     1.4265    2.0496    0.6819 H        1 ZINC000001530757    0.0800
22     H22     2.6038   -0.1272    0.5276 H        1 ZINC000001530757    0.1300
23     H23     2.5638   -0.2746    2.3011 H        1 ZINC000001530757    0.1300
24     H24     0.0606    1.0856    0.0678 H        1 ZINC000001530757    0.1300
25     H25     0.5775   -0.4107   -0.7460 H        1 ZINC000001530757    0.1300
26     H26    -1.4195   -1.5825    0.1507 H        1 ZINC000001530757    0.0800
27     H27    -1.9386   -0.0791    0.9499 H        1 ZINC000001530757    0.0800
28     H28    -1.8857   -0.1701   -0.8270 H        1 ZINC000001530757    0.1100
29     H29    -0.1974   -2.3446    1.1951 H        1 ZINC000001530757    0.1500
30     H30     1.4590   -2.2387    0.5523 H        1 ZINC000001530757    0.1500
31     H31     1.5038   -3.4687    2.6663 H        1 ZINC000001530757    0.1200
32     H32     2.2922   -1.8899    2.8989 H        1 ZINC000001530757    0.1000
33     H33    -1.8364   -1.6764    4.8360 H        1 ZINC000001530757    0.1300
34     H34    -3.4152   -1.3593    6.6838 H        1 ZINC000001530757    0.1300
35     H35    -3.7831   -1.3676    9.0649 H        1 ZINC000001530757    0.4100
36     H36    -2.5670   -1.7197   10.1695 H        1 ZINC000001530757    0.4100
37     H37    -0.3162   -2.2574    9.4989 H        1 ZINC000001530757    0.1400
38     H38     1.2692   -2.5832    7.6582 H        1 ZINC000001530757    0.1400
@<TRIPOS>BOND
1     1     2     1
2     1     19    1
3     1     20    1
4     1     21    1
5     2     3     1
6     2     22    1
7     2     23    1
8     3     4     1
9     3     5     1
10    3     7     1
11    5     6     1
12    5     24    1
13    5     25    1
14    6     26    1
15    6     27    1
16    6     28    1
17    7     8     1
18    7     29    1
19    7     30    1
20    8     9     1
21    8     31    1
22    8     32    1
23    9     10    1
24    10    11    2
25    10    12    1
26    12    18    ar
27    12    13    ar
28    13    14    ar
29    13    33    1
30    14    15    ar
31    14    34    1
32    15    16    1
33    15    17    ar
34    16    35    1
35    16    36    1
36    17    18    ar
37    17    37    1
38    18    38    1
@<TRIPOS>SUBSTRUCTURE
1   ZINC000001530757 1     RESIDUE    1   A     ZIN   1
