@<TRIPOS>MOLECULE
ZINC000094303099
102   107   1     0     0
SMALL
USER_CHARGES
@<TRIPOS>ATOM
1      C1      0.2655   -0.1859   -3.1243 C.3      1 ZINC000094303099   -0.0500
2      N2     -0.0616   -1.3842   -2.3401 N.4      1 ZINC000094303099   -0.3900
3      H3     -0.4694   -2.0812   -2.9451 H        1 ZINC000094303099    0.4300
4      C4      1.1631   -1.9203   -1.7313 C.3      1 ZINC000094303099   -0.0500
5      C5     -1.0197   -1.0317   -1.2838 C.3      1 ZINC000094303099   -0.0100
6      C6     -1.4556   -2.2996   -0.5468 C.3      1 ZINC000094303099   -0.1600
7      C7     -2.4471   -1.9315    0.5588 C.3      1 ZINC000094303099    0.1600
8      H8     -1.9929   -1.1977    1.2247 H        1 ZINC000094303099    0.1200
9      C9     -2.8119   -3.1859    1.3551 C.3      1 ZINC000094303099   -0.1400
10     S10    -3.9874   -2.7495    2.6660 S.3      1 ZINC000094303099   -0.0800
11     C11    -4.2851   -4.2932    3.4616 C.ar     1 ZINC000094303099   -0.0900
12     C12    -3.6455   -5.4426    3.0132 C.ar     1 ZINC000094303099   -0.1400
13     C13    -3.8812   -6.6507    3.6391 C.ar     1 ZINC000094303099   -0.1000
14     C14    -4.7526   -6.7176    4.7110 C.ar     1 ZINC000094303099   -0.1200
15     C15    -5.3913   -5.5758    5.1596 C.ar     1 ZINC000094303099   -0.1000
16     C16    -5.1557   -4.3632    4.5426 C.ar     1 ZINC000094303099   -0.1000
17     N17    -3.6577   -1.3640   -0.0400 N.pl3    1 ZINC000094303099   -0.7200
18     C18    -4.0081   -0.0367    0.2176 C.ar     1 ZINC000094303099    0.3100
19     C19    -3.3109    0.6948    1.1704 C.ar     1 ZINC000094303099   -0.2300
20     C20    -3.6597    2.0074    1.4223 C.ar     1 ZINC000094303099    0.0700
21     C21    -4.7016    2.5930    0.7273 C.ar     1 ZINC000094303099   -0.6700
22     S22    -5.1429    4.2678    1.0515 S.o2     1 ZINC000094303099    2.6400
23     O23    -6.4990    4.4101    0.6514 O.2      1 ZINC000094303099   -1.0000
24     O24    -4.6860    4.5560    2.3658 O.2      1 ZINC000094303099   -1.0100
25     N25    -4.2514    5.2165    0.0280 N.pl3    1 ZINC000094303099   -1.1100
26     C26    -4.3893    6.5568    0.0599 C.2      1 ZINC000094303099    0.5600
27     O27    -5.1684    7.0695    0.8401 O.2      1 ZINC000094303099   -0.6200
28     C28    -3.5951    7.4020   -0.8518 C.ar     1 ZINC000094303099   -0.0800
29     C29    -2.7032    6.8138   -1.7534 C.ar     1 ZINC000094303099   -0.0400
30     C30    -1.9642    7.6049   -2.6030 C.ar     1 ZINC000094303099   -0.1500
31     C31    -2.1039    8.9895   -2.5651 C.ar     1 ZINC000094303099    0.0800
32     N32    -1.3560    9.7860   -3.4252 N.3      1 ZINC000094303099   -0.4800
33     C33     0.0820    9.5277   -3.2655 C.3      1 ZINC000094303099    0.0300
34     C34     0.8645   10.3782   -4.2685 C.3      1 ZINC000094303099    0.0000
35     N35     0.5760   11.7995   -4.0355 N.4      1 ZINC000094303099   -0.3900
36     H36     0.8394   12.0459   -3.0932 H        1 ZINC000094303099    0.4200
37     C37     1.3410   12.6165   -4.9870 C.3      1 ZINC000094303099    0.0400
38     C38     1.1684   14.0749   -4.6491 C.ar     1 ZINC000094303099   -0.1200
39     C39     0.5276   14.4433   -3.4838 C.ar     1 ZINC000094303099   -0.1400
40     C40     0.3684   15.7819   -3.1724 C.ar     1 ZINC000094303099   -0.0900
41     C41     0.8498   16.7577   -4.0260 C.ar     1 ZINC000094303099   -0.0900
42     C42     1.4923   16.4005   -5.1944 C.ar     1 ZINC000094303099   -0.0900
43     C43     1.6605   15.0540   -5.5102 C.ar     1 ZINC000094303099   -0.0200
44     C44     2.3504   14.6639   -6.7646 C.ar     1 ZINC000094303099   -0.0700
45     C45     3.4693   13.8347   -6.7182 C.ar     1 ZINC000094303099   -0.1000
46     C46     4.1071   13.4743   -7.8877 C.ar     1 ZINC000094303099   -0.1100
47     C47     3.6371   13.9351   -9.1055 C.ar     1 ZINC000094303099   -0.0300
48     Cl48    4.4434   13.4778  -10.5733 Cl       1 ZINC000094303099   -0.0500
49     C49     2.5258   14.7591   -9.1568 C.ar     1 ZINC000094303099   -0.1000
50     C50     1.8779   15.1208   -7.9933 C.ar     1 ZINC000094303099   -0.0900
51     C51    -0.8598   12.0466   -4.2227 C.3      1 ZINC000094303099   -0.0200
52     C52    -1.6566   11.2099   -3.2193 C.3      1 ZINC000094303099    0.0200
53     C53    -2.9913    9.5782   -1.6684 C.ar     1 ZINC000094303099   -0.1700
54     C54    -3.7371    8.7923   -0.8200 C.ar     1 ZINC000094303099   -0.0500
55     C55    -5.3980    1.8674   -0.2222 C.ar     1 ZINC000094303099    0.0900
56     C56    -5.0511    0.5565   -0.4827 C.ar     1 ZINC000094303099   -0.1300
57     N57    -5.7969   -0.2192   -1.4989 N.pl3    1 ZINC000094303099    0.0500
58     O58    -6.6260    0.3335   -2.1994 O.2      1 ZINC000094303099   -0.1400
59     O59    -5.5814   -1.4103   -1.6348 O.2      1 ZINC000094303099   -0.2100
60     H60     0.9764   -0.4475   -3.9081 H        1 ZINC000094303099    0.1300
61     H61    -0.6433    0.2119   -3.5761 H        1 ZINC000094303099    0.1200
62     H62     0.7060    0.5670   -2.4708 H        1 ZINC000094303099    0.1200
63     H63     0.9204   -2.8095   -1.1494 H        1 ZINC000094303099    0.1200
64     H64     1.8740   -2.1819   -2.5151 H        1 ZINC000094303099    0.1300
65     H65     1.6036   -1.1674   -1.0777 H        1 ZINC000094303099    0.1200
66     H66    -0.5482   -0.3461   -0.5797 H        1 ZINC000094303099    0.1300
67     H67    -1.8915   -0.5524   -1.7292 H        1 ZINC000094303099    0.1300
68     H68    -1.9324   -2.9827   -1.2497 H        1 ZINC000094303099    0.1000
69     H69    -0.5831   -2.7821   -0.1064 H        1 ZINC000094303099    0.1100
70     H70    -3.2662   -3.9197    0.6893 H        1 ZINC000094303099    0.1000
71     H71    -1.9112   -3.6081    1.8007 H        1 ZINC000094303099    0.1100
72     H72    -2.9652   -5.3912    2.1760 H        1 ZINC000094303099    0.1200
73     H73    -3.3848   -7.5444    3.2909 H        1 ZINC000094303099    0.1300
74     H74    -4.9351   -7.6638    5.1986 H        1 ZINC000094303099    0.1300
75     H75    -6.0714   -5.6319    5.9967 H        1 ZINC000094303099    0.1300
76     H76    -5.6545   -3.4720    4.8937 H        1 ZINC000094303099    0.1300
77     H77    -4.2160   -1.9101   -0.6155 H        1 ZINC000094303099    0.4200
78     H78    -2.4972    0.2378    1.7139 H        1 ZINC000094303099    0.1500
79     H79    -3.1182    2.5766    2.1633 H        1 ZINC000094303099    0.1600
80     H80    -2.5941    5.7398   -1.7830 H        1 ZINC000094303099    0.1500
81     H81    -1.2747    7.1511   -3.2995 H        1 ZINC000094303099    0.1200
82     H82     0.3878    9.7872   -2.2519 H        1 ZINC000094303099    0.0700
83     H83     0.2843    8.4723   -3.4477 H        1 ZINC000094303099    0.1300
84     H84     1.9321   10.1987   -4.1421 H        1 ZINC000094303099    0.1400
85     H85     0.5683   10.1088   -5.2823 H        1 ZINC000094303099    0.1400
86     H86     2.3967   12.3519   -4.9264 H        1 ZINC000094303099    0.1400
87     H87     0.9778   12.4323   -5.9981 H        1 ZINC000094303099    0.1400
88     H88     0.1495   13.6854   -2.8138 H        1 ZINC000094303099    0.1200
89     H89    -0.1339   16.0658   -2.2595 H        1 ZINC000094303099    0.1400
90     H90     0.7225   17.8012   -3.7782 H        1 ZINC000094303099    0.1400
91     H91     1.8679   17.1633   -5.8603 H        1 ZINC000094303099    0.1400
92     H92     3.8370   13.4750   -5.7686 H        1 ZINC000094303099    0.1300
93     H93     4.9746   12.8320   -7.8527 H        1 ZINC000094303099    0.1400
94     H94     2.1630   15.1164  -10.1093 H        1 ZINC000094303099    0.1400
95     H95     1.0111   15.7637   -8.0343 H        1 ZINC000094303099    0.1400
96     H96    -1.0704   13.1039   -4.0624 H        1 ZINC000094303099    0.1400
97     H97    -1.1471   11.7686   -5.2367 H        1 ZINC000094303099    0.1400
98     H98    -2.7226   11.3818   -3.3679 H        1 ZINC000094303099    0.1300
99     H99    -1.3794   11.4972   -2.2050 H        1 ZINC000094303099    0.0700
100    H100   -3.0975   10.6527   -1.6414 H        1 ZINC000094303099    0.1200
101    H101   -4.4255    9.2496   -0.1248 H        1 ZINC000094303099    0.1400
102    H102   -6.2113    2.3280   -0.7633 H        1 ZINC000094303099    0.1700
@<TRIPOS>BOND
1     1     2     1
2     1     60    1
3     1     61    1
4     1     62    1
5     2     3     1
6     2     4     1
7     2     5     1
8     4     63    1
9     4     64    1
10    4     65    1
11    5     6     1
12    5     66    1
13    5     67    1
14    6     7     1
15    6     68    1
16    6     69    1
17    7     8     1
18    7     9     1
19    7     17    1
20    9     10    1
21    9     70    1
22    9     71    1
23    10    11    1
24    11    16    ar
25    11    12    ar
26    12    13    ar
27    12    72    1
28    13    14    ar
29    13    73    1
30    14    15    ar
31    14    74    1
32    15    16    ar
33    15    75    1
34    16    76    1
35    17    18    1
36    17    77    1
37    18    56    ar
38    18    19    ar
39    19    20    ar
40    19    78    1
41    20    21    ar
42    20    79    1
43    21    22    1
44    21    55    ar
45    22    23    2
46    22    24    2
47    22    25    1
48    25    26    1
49    26    27    2
50    26    28    1
51    28    54    ar
52    28    29    ar
53    29    30    ar
54    29    80    1
55    30    31    ar
56    30    81    1
57    31    32    1
58    31    53    ar
59    32    52    1
60    32    33    1
61    33    34    1
62    33    82    1
63    33    83    1
64    34    35    1
65    34    84    1
66    34    85    1
67    35    36    1
68    35    37    1
69    35    51    1
70    37    38    1
71    37    86    1
72    37    87    1
73    38    43    ar
74    38    39    ar
75    39    40    ar
76    39    88    1
77    40    41    ar
78    40    89    1
79    41    42    ar
80    41    90    1
81    42    43    ar
82    42    91    1
83    43    44    1
84    44    50    ar
85    44    45    ar
86    45    46    ar
87    45    92    1
88    46    47    ar
89    46    93    1
90    47    48    1
91    47    49    ar
92    49    50    ar
93    49    94    1
94    50    95    1
95    51    52    1
96    51    96    1
97    51    97    1
98    52    98    1
99    52    99    1
100   53    54    ar
101   53    100   1
102   54    101   1
103   55    56    ar
104   55    102   1
105   56    57    1
106   57    58    2
107   57    59    2
@<TRIPOS>SUBSTRUCTURE
1   ZINC000094303099 1     RESIDUE    1   A     ZIN   1
