@<TRIPOS>MOLECULE
ZINC000043199963
83    88    1     0     0
SMALL
USER_CHARGES
@<TRIPOS>ATOM
1      C1     -0.0178    1.4648    0.0101 C.3      1 ZINC000043199963    0.0200
2      N2      0.0021   -0.0041    0.0020 N.3      1 ZINC000043199963   -0.5300
3      C3      0.7062   -0.5275    1.1802 C.3      1 ZINC000043199963    0.0500
4      C4      2.1851   -0.1430    1.1032 C.3      1 ZINC000043199963   -0.1500
5      C5      2.9184   -0.6882    2.3303 C.3      1 ZINC000043199963   -0.0100
6      N6      4.3383   -0.3190    2.2563 N.4      1 ZINC000043199963   -0.3900
7      H7      4.4207    0.6810    2.1497 H        1 ZINC000043199963    0.4300
8      C8      5.0180   -0.7376    3.4895 C.3      1 ZINC000043199963   -0.0500
9      C9      4.9586   -0.9870    1.1043 C.3      1 ZINC000043199963   -0.0500
10     C10    -1.3597   -0.5486   -0.0825 C.3      1 ZINC000043199963    0.0700
11     H11    -1.9360   -0.2935    0.8068 H        1 ZINC000043199963    0.0700
12     C12    -2.0757   -0.0586   -1.3688 C.3      1 ZINC000043199963   -0.1200
13     C13    -3.1007   -1.1794   -1.6421 C.3      1 ZINC000043199963    0.0800
14     N14    -2.6153   -2.3898   -0.9631 N.am     1 ZINC000043199963   -0.6200
15     C15    -3.2397   -3.5841   -0.9449 C.2      1 ZINC000043199963    0.6000
16     O16    -2.7428   -4.5218   -0.3479 O.2      1 ZINC000043199963   -0.4900
17     C17    -4.5144   -3.7537   -1.6423 C.2      1 ZINC000043199963    0.0400
18     C18    -5.2567   -4.9259   -1.6941 C.2      1 ZINC000043199963    0.0000
19     C19    -4.9169   -6.2116   -1.0688 C.2      1 ZINC000043199963    0.0600
20     C20    -4.1762   -7.2422   -1.6298 C.2      1 ZINC000043199963    0.0700
21     C21    -3.5740   -7.2544   -2.9824 C.ar     1 ZINC000043199963    0.0000
22     C22    -4.2256   -6.6277   -4.0450 C.ar     1 ZINC000043199963   -0.1100
23     C23    -3.6592   -6.6427   -5.3030 C.ar     1 ZINC000043199963   -0.1200
24     C24    -2.4480   -7.2778   -5.5120 C.ar     1 ZINC000043199963   -0.1200
25     C25    -1.7971   -7.9016   -4.4625 C.ar     1 ZINC000043199963   -0.1200
26     C26    -2.3499   -7.8878   -3.1984 C.ar     1 ZINC000043199963   -0.0900
27     N27    -4.1067   -8.2278   -0.7175 N.2      1 ZINC000043199963   -0.4700
28     C28    -4.7511   -7.8737    0.3598 C.2      1 ZINC000043199963    0.2000
29     N29    -5.2641   -6.6355    0.1953 N.pl3    1 ZINC000043199963   -0.4400
30     C30    -6.0527   -5.8854    1.1760 C.3      1 ZINC000043199963    0.1500
31     C31    -7.5205   -6.0954    0.9068 C.ar     1 ZINC000043199963   -0.1200
32     C32    -8.1945   -5.2449    0.0504 C.ar     1 ZINC000043199963   -0.0800
33     C33    -9.5407   -5.4370   -0.1969 C.ar     1 ZINC000043199963   -0.1100
34     C34   -10.2137   -6.4808    0.4129 C.ar     1 ZINC000043199963   -0.0200
35     Cl35  -11.9044   -6.7230    0.1023 Cl       1 ZINC000043199963   -0.0600
36     C36    -9.5386   -7.3316    1.2699 C.ar     1 ZINC000043199963   -0.1100
37     C37    -8.1911   -7.1419    1.5120 C.ar     1 ZINC000043199963   -0.0800
38     C38    -6.4504   -4.6256   -2.4980 C.ar     1 ZINC000043199963   -0.1000
39     C39    -7.5530   -5.3814   -2.9000 C.ar     1 ZINC000043199963   -0.0400
40     C40    -8.5282   -4.8072   -3.6653 C.ar     1 ZINC000043199963   -0.1300
41     C41    -8.4309   -3.4749   -4.0472 C.ar     1 ZINC000043199963    0.0100
42     Cl42   -9.6819   -2.7659   -5.0198 Cl       1 ZINC000043199963   -0.0500
43     C43    -7.3509   -2.7106   -3.6609 C.ar     1 ZINC000043199963   -0.1300
44     C44    -6.3450   -3.2763   -2.8808 C.ar     1 ZINC000043199963    0.1300
45     N45    -5.1793   -2.7717   -2.3521 N.pl3    1 ZINC000043199963   -0.5800
46     C46    -1.3320   -2.0813   -0.3055 C.3      1 ZINC000043199963    0.1200
47     H47     1.0047    1.8421    0.0024 H        1 ZINC000043199963    0.0700
48     H48    -0.5450    1.8259   -0.8730 H        1 ZINC000043199963    0.0800
49     H49    -0.5280    1.8163    0.9069 H        1 ZINC000043199963    0.0300
50     H50     0.2673   -0.1040    2.0837 H        1 ZINC000043199963    0.0500
51     H51     0.6139   -1.6133    1.2060 H        1 ZINC000043199963    0.0900
52     H52     2.6240   -0.5665    0.1998 H        1 ZINC000043199963    0.1000
53     H53     2.2773    0.9428    1.0774 H        1 ZINC000043199963    0.0900
54     H54     2.4795   -0.2647    3.2337 H        1 ZINC000043199963    0.1300
55     H55     2.8262   -1.7739    2.3561 H        1 ZINC000043199963    0.1300
56     H56     4.9290   -1.8178    3.6046 H        1 ZINC000043199963    0.1200
57     H57     6.0716   -0.4637    3.4345 H        1 ZINC000043199963    0.1300
58     H58     4.5578   -0.2419    4.3442 H        1 ZINC000043199963    0.1200
59     H59     4.8695   -2.0672    1.2195 H        1 ZINC000043199963    0.1200
60     H60     4.4542   -0.6764    0.1893 H        1 ZINC000043199963    0.1300
61     H61     6.0121   -0.7131    1.0494 H        1 ZINC000043199963    0.1200
62     H62    -2.5808    0.8909   -1.1911 H        1 ZINC000043199963    0.0900
63     H63    -1.3693    0.0277   -2.1943 H        1 ZINC000043199963    0.1000
64     H64    -4.0749   -0.8962   -1.2436 H        1 ZINC000043199963    0.0700
65     H65    -3.1749   -1.3605   -2.7144 H        1 ZINC000043199963    0.0800
66     H66    -5.1714   -6.1322   -3.8832 H        1 ZINC000043199963    0.1200
67     H67    -4.1627   -6.1579   -6.1264 H        1 ZINC000043199963    0.1200
68     H68    -2.0089   -7.2871   -6.4987 H        1 ZINC000043199963    0.1200
69     H69    -0.8521   -8.3960   -4.6321 H        1 ZINC000043199963    0.1200
70     H70    -1.8409   -8.3750   -2.3799 H        1 ZINC000043199963    0.1200
71     H71    -4.8547   -8.4770    1.2496 H        1 ZINC000043199963    0.2100
72     H72    -5.8135   -6.2367    2.1797 H        1 ZINC000043199963    0.1100
73     H73    -5.8170   -4.8242    1.0967 H        1 ZINC000043199963    0.0900
74     H74    -7.6691   -4.4300   -0.4253 H        1 ZINC000043199963    0.1300
75     H75   -10.0672   -4.7723   -0.8657 H        1 ZINC000043199963    0.1400
76     H76   -10.0635   -8.1464    1.7464 H        1 ZINC000043199963    0.1400
77     H77    -7.6640   -7.8062    2.1807 H        1 ZINC000043199963    0.1300
78     H78    -7.6348   -6.4177   -2.6069 H        1 ZINC000043199963    0.1300
79     H79    -9.3807   -5.3932   -3.9759 H        1 ZINC000043199963    0.1400
80     H80    -7.2844   -1.6758   -3.9629 H        1 ZINC000043199963    0.1400
81     H81    -4.8684   -1.8595   -2.4626 H        1 ZINC000043199963    0.4200
82     H82    -0.4987   -2.3547   -0.9528 H        1 ZINC000043199963    0.0800
83     H83    -1.2594   -2.6033    0.6486 H        1 ZINC000043199963    0.0800
@<TRIPOS>BOND
1     1     2     1
2     1     47    1
3     1     48    1
4     1     49    1
5     2     3     1
6     2     10    1
7     3     4     1
8     3     50    1
9     3     51    1
10    4     5     1
11    4     52    1
12    4     53    1
13    5     6     1
14    5     54    1
15    5     55    1
16    6     7     1
17    6     8     1
18    6     9     1
19    8     56    1
20    8     57    1
21    8     58    1
22    9     59    1
23    9     60    1
24    9     61    1
25    10    11    1
26    10    46    1
27    10    12    1
28    12    13    1
29    12    62    1
30    12    63    1
31    13    14    1
32    13    64    1
33    13    65    1
34    14    15    am
35    14    46    1
36    15    16    2
37    15    17    1
38    17    45    1
39    17    18    2
40    18    19    1
41    18    38    1
42    19    29    1
43    19    20    2
44    20    21    1
45    20    27    1
46    21    26    ar
47    21    22    ar
48    22    23    ar
49    22    66    1
50    23    24    ar
51    23    67    1
52    24    25    ar
53    24    68    1
54    25    26    ar
55    25    69    1
56    26    70    1
57    27    28    2
58    28    29    1
59    28    71    1
60    29    30    1
61    30    31    1
62    30    72    1
63    30    73    1
64    31    37    ar
65    31    32    ar
66    32    33    ar
67    32    74    1
68    33    34    ar
69    33    75    1
70    34    35    1
71    34    36    ar
72    36    37    ar
73    36    76    1
74    37    77    1
75    38    44    ar
76    38    39    ar
77    39    40    ar
78    39    78    1
79    40    41    ar
80    40    79    1
81    41    42    1
82    41    43    ar
83    43    44    ar
84    43    80    1
85    44    45    1
86    45    81    1
87    46    82    1
88    46    83    1
@<TRIPOS>SUBSTRUCTURE
1   ZINC000043199963 1     RESIDUE    1   A     ZIN   1
