@<TRIPOS>MOLECULE
ZINC000000519621
33    35    1     0     0
SMALL
USER_CHARGES
@<TRIPOS>ATOM
1      C1     -0.0173    1.4248    0.0099 C.3      1 ZINC000000519621    0.0200
2      O2      0.0021   -0.0041    0.0020 O.3      1 ZINC000000519621   -0.3100
3      C3     -1.2011   -0.6379    0.0101 C.ar     1 ZINC000000519621    0.1000
4      C4     -2.3695    0.0985    0.0195 C.ar     1 ZINC000000519621   -0.1600
5      C5     -3.6047   -0.5563    0.0278 C.ar     1 ZINC000000519621   -0.0200
6      C6     -4.8557    0.2251    0.0374 C.2      1 ZINC000000519621    0.1800
7      C7     -6.0422   -0.4399    0.0509 C.2      1 ZINC000000519621   -0.3000
8      C8     -7.2527    0.2929    0.0608 C.2      1 ZINC000000519621    0.4200
9      O9     -8.3350   -0.2708    0.0734 O.2      1 ZINC000000519621   -0.5000
10     C10    -7.1554    1.7624    0.0557 C.ar     1 ZINC000000519621   -0.3700
11     C11    -8.3013    2.5669    0.0652 C.ar     1 ZINC000000519621    0.2200
12     O12    -9.5344    2.0003    0.0794 O.3      1 ZINC000000519621   -0.4900
13     C13    -8.1672    3.9433    0.0604 C.ar     1 ZINC000000519621   -0.2900
14     C14    -6.9030    4.5218    0.0463 C.ar     1 ZINC000000519621    0.3300
15     O15    -6.7825    5.8739    0.0422 O.3      1 ZINC000000519621   -0.6900
16     C16    -5.7640    3.7310    0.0368 C.ar     1 ZINC000000519621   -0.2900
17     C17    -5.8783    2.3499    0.0414 C.ar     1 ZINC000000519621    0.1900
18     O18    -4.7797    1.5655    0.0379 O.3      1 ZINC000000519621   -0.2300
19     C19    -3.6513   -1.9527    0.0265 C.ar     1 ZINC000000519621   -0.1100
20     C20    -2.4811   -2.6813    0.0171 C.ar     1 ZINC000000519621   -0.1100
21     C21    -1.2552   -2.0311    0.0031 C.ar     1 ZINC000000519621    0.0900
22     O22    -0.1049   -2.7538   -0.0062 O.3      1 ZINC000000519621   -0.4900
23     H23     1.0053    1.8021    0.0021 H        1 ZINC000000519621    0.1000
24     H24    -0.5445    1.7859   -0.8732 H        1 ZINC000000519621    0.0600
25     H25    -0.5275    1.7763    0.9067 H        1 ZINC000000519621    0.0600
26     H26    -2.3291    1.1778    0.0208 H        1 ZINC000000519621    0.1500
27     H27    -6.0603   -1.5198    0.0538 H        1 ZINC000000519621    0.1500
28     H28    -9.8827    1.8385    0.9669 H        1 ZINC000000519621    0.3800
29     H29    -9.0465    4.5703    0.0673 H        1 ZINC000000519621    0.1200
30     H30    -4.7872    4.1917    0.0255 H        1 ZINC000000519621    0.1200
31     H31    -4.6041   -2.4612    0.0333 H        1 ZINC000000519621    0.1400
32     H32    -2.5185   -3.7607    0.0162 H        1 ZINC000000519621    0.1400
33     H33     0.2194   -2.9656   -0.8922 H        1 ZINC000000519621    0.3900
@<TRIPOS>BOND
1     1     2     1
2     1     23    1
3     1     24    1
4     1     25    1
5     2     3     1
6     3     21    ar
7     3     4     ar
8     4     5     ar
9     4     26    1
10    5     6     1
11    5     19    ar
12    6     18    1
13    6     7     2
14    7     8     1
15    7     27    1
16    8     9     2
17    8     10    1
18    10    17    ar
19    10    11    ar
20    11    12    1
21    11    13    ar
22    12    28    1
23    13    14    ar
24    13    29    1
25    14    15    1
26    14    16    ar
27    16    17    ar
28    16    30    1
29    17    18    1
30    19    20    ar
31    19    31    1
32    20    21    ar
33    20    32    1
34    21    22    1
35    22    33    1
@<TRIPOS>SUBSTRUCTURE
1   ZINC000000519621 1     RESIDUE    1   A     ZIN   1
