@<TRIPOS>MOLECULE
ZINC000001567332
38    41    1     0     0
SMALL
USER_CHARGES
@<TRIPOS>ATOM
1      C1     -0.0184    1.5028    0.0103 C.3      1 ZINC000001567332   -0.1200
2      C2      0.0021   -0.0041    0.0020 C.2      1 ZINC000001567332   -0.0500
3      C3     -1.1650   -0.7027    0.0038 C.2      1 ZINC000001567332   -0.0900
4      C4     -1.1238   -2.1102   -0.0040 C.2      1 ZINC000001567332    0.2000
5      N5     -2.0570   -3.0481   -0.0042 N.2      1 ZINC000001567332   -0.2900
6      N6     -1.4998   -4.2080   -0.0128 N.2      1 ZINC000001567332   -0.2400
7      C7     -0.1975   -4.0856   -0.0186 C.2      1 ZINC000001567332    0.1400
8      C8      0.8033   -5.2122   -0.0292 C.3      1 ZINC000001567332   -0.0200
9      C9      1.1344   -5.5866   -1.4753 C.3      1 ZINC000001567332   -0.0200
10     C10     2.1352   -6.7132   -1.4860 C.2      1 ZINC000001567332    0.1400
11     N11     3.4375   -6.5908   -1.4865 N.2      1 ZINC000001567332   -0.2400
12     N12     3.9947   -7.7507   -1.4969 N.2      1 ZINC000001567332   -0.2900
13     C13     3.0615   -8.6885   -1.5036 C.2      1 ZINC000001567332    0.2000
14     C14     3.1027  -10.0961   -1.5158 C.2      1 ZINC000001567332   -0.0900
15     C15     1.9356  -10.7946   -1.5207 C.2      1 ZINC000001567332   -0.0500
16     C16     1.9560  -12.3014   -1.5333 C.3      1 ZINC000001567332   -0.1200
17     C17     0.7105  -10.1058   -1.5135 C.2      1 ZINC000001567332   -0.1300
18     C18     0.6866   -8.7565   -1.5022 C.2      1 ZINC000001567332    0.0700
19     N19     1.8491   -8.0434   -1.4908 N.pl3    1 ZINC000001567332   -0.3900
20     N20     0.0886   -2.7554   -0.0132 N.pl3    1 ZINC000001567332   -0.3900
21     C21     1.2511   -2.0422   -0.0153 C.2      1 ZINC000001567332    0.0700
22     C22     1.2271   -0.6929   -0.0134 C.2      1 ZINC000001567332   -0.1300
23     H23     1.0042    1.8801    0.0026 H        1 ZINC000001567332    0.0700
24     H24    -0.5455    1.8639   -0.8728 H        1 ZINC000001567332    0.0800
25     H25    -0.5286    1.8543    0.9071 H        1 ZINC000001567332    0.0800
26     H26    -2.1122   -0.1839    0.0114 H        1 ZINC000001567332    0.1600
27     H27     1.7126   -4.8953    0.4814 H        1 ZINC000001567332    0.0900
28     H28     0.3819   -6.0774    0.4826 H        1 ZINC000001567332    0.1000
29     H29     0.2251   -5.9035   -1.9859 H        1 ZINC000001567332    0.0900
30     H30     1.5558   -4.7214   -1.9872 H        1 ZINC000001567332    0.1000
31     H31     4.0499  -10.6148   -1.5216 H        1 ZINC000001567332    0.1600
32     H32     1.9618  -12.6733   -0.5087 H        1 ZINC000001567332    0.0800
33     H33     1.0706  -12.6725   -2.0495 H        1 ZINC000001567332    0.0800
34     H34     2.8504  -12.6484   -2.0508 H        1 ZINC000001567332    0.0800
35     H35    -0.2168  -10.6593   -1.5174 H        1 ZINC000001567332    0.1600
36     H36    -0.2605   -8.2374   -1.4975 H        1 ZINC000001567332    0.1700
37     H37     2.1981   -2.5613   -0.0226 H        1 ZINC000001567332    0.1700
38     H38     2.1544   -0.1393   -0.0154 H        1 ZINC000001567332    0.1600
@<TRIPOS>BOND
1     1     2     1
2     1     23    1
3     1     24    1
4     1     25    1
5     2     22    1
6     2     3     2
7     3     4     1
8     3     26    1
9     4     20    1
10    4     5     2
11    5     6     1
12    6     7     2
13    7     8     1
14    7     20    1
15    8     9     1
16    8     27    1
17    8     28    1
18    9     10    1
19    9     29    1
20    9     30    1
21    10    19    1
22    10    11    2
23    11    12    1
24    12    13    2
25    13    19    1
26    13    14    1
27    14    15    2
28    14    31    1
29    15    16    1
30    15    17    1
31    16    32    1
32    16    33    1
33    16    34    1
34    17    18    2
35    17    35    1
36    18    19    1
37    18    36    1
38    20    21    1
39    21    22    2
40    21    37    1
41    22    38    1
@<TRIPOS>SUBSTRUCTURE
1   ZINC000001567332 1     RESIDUE    1   A     ZIN   1
