@<TRIPOS>MOLECULE
ZINC000017040306
41    42    1     0     0
SMALL
USER_CHARGES
@<TRIPOS>ATOM
1      C1      0.4500    0.2210   -2.0997 C.3      1 ZINC000017040306    0.0800
2      N2     -0.0151   -0.1498   -0.7609 N.pl3    1 ZINC000017040306   -0.6100
3      C3      0.7855    0.1989    0.4154 C.3      1 ZINC000017040306    0.0700
4      C4     -1.2241   -0.8372   -0.6057 C.ar     1 ZINC000017040306    0.2600
5      C5     -1.6679   -1.1837    0.6638 C.ar     1 ZINC000017040306   -0.1900
6      C6     -2.8610   -1.8615    0.8169 C.ar     1 ZINC000017040306   -0.0500
7      C7     -3.6172   -2.1966   -0.2984 C.ar     1 ZINC000017040306   -0.0300
8      N8     -4.8284   -2.8841   -0.1429 N.pl3    1 ZINC000017040306   -0.5400
9      C9     -4.8967   -4.2669   -0.2565 C.cat    1 ZINC000017040306    0.7600
10     N10    -4.0127   -5.0473    0.2970 N.pl3    1 ZINC000017040306   -0.6700
11     H11    -3.2803   -4.6661    0.8061 H        1 ZINC000017040306    0.4600
12     H12    -4.0869   -6.0096    0.2002 H        1 ZINC000017040306    0.4600
13     N13    -5.9650   -4.7722   -0.9959 N.pl3    1 ZINC000017040306   -0.6800
14     C14    -7.1854   -4.1199   -0.8308 C.cat    1 ZINC000017040306    0.7700
15     N15    -8.3124   -4.7712   -0.7820 N.pl3    1 ZINC000017040306   -0.6800
16     H16    -8.3177   -5.7379   -0.8613 H        1 ZINC000017040306    0.4600
17     H17    -9.1463   -4.2894   -0.6662 H        1 ZINC000017040306    0.4700
18     N18    -7.1325   -2.7373   -0.7220 N.pl3    1 ZINC000017040306   -0.7100
19     C19    -6.0848   -2.1717    0.1545 C.3      1 ZINC000017040306    0.4000
20     C20    -6.4709   -2.3730    1.6213 C.3      1 ZINC000017040306   -0.1800
21     C21    -5.9132   -0.6798   -0.1380 C.3      1 ZINC000017040306   -0.1700
22     C22    -3.1736   -1.8502   -1.5678 C.ar     1 ZINC000017040306   -0.0300
23     C23    -1.9831   -1.1678   -1.7207 C.ar     1 ZINC000017040306   -0.1900
24     H24     1.4022    0.7457   -2.0211 H        1 ZINC000017040306    0.0900
25     H25     0.5794   -0.6785   -2.7015 H        1 ZINC000017040306    0.0700
26     H26    -0.2855    0.8719   -2.5725 H        1 ZINC000017040306    0.0700
27     H27     0.4848    1.1805    0.7816 H        1 ZINC000017040306    0.0700
28     H28     0.6267   -0.5446    1.1964 H        1 ZINC000017040306    0.0800
29     H29     1.8408    0.2203    0.1433 H        1 ZINC000017040306    0.0800
30     H30    -1.0796   -0.9233    1.5313 H        1 ZINC000017040306    0.1500
31     H31    -3.2060   -2.1313    1.8041 H        1 ZINC000017040306    0.1300
32     H32    -5.8648   -5.5324   -1.5900 H        1 ZINC000017040306    0.4800
33     H33    -7.7569   -2.1680   -1.1984 H        1 ZINC000017040306    0.4600
34     H34    -6.5756   -3.4384    1.8265 H        1 ZINC000017040306    0.0600
35     H35    -5.6949   -1.9542    2.2620 H        1 ZINC000017040306    0.1100
36     H36    -7.4172   -1.8699    1.8203 H        1 ZINC000017040306    0.1100
37     H37    -6.8666   -0.1702    0.0010 H        1 ZINC000017040306    0.1100
38     H38    -5.1735   -0.2588    0.5430 H        1 ZINC000017040306    0.1100
39     H39    -5.5770   -0.5475   -1.1664 H        1 ZINC000017040306    0.0900
40     H40    -3.7619   -2.1109   -2.4352 H        1 ZINC000017040306    0.1300
41     H41    -1.6380   -0.8983   -2.7080 H        1 ZINC000017040306    0.1400
@<TRIPOS>BOND
1     1     2     1
2     1     24    1
3     1     25    1
4     1     26    1
5     2     3     1
6     2     4     1
7     3     27    1
8     3     28    1
9     3     29    1
10    4     23    ar
11    4     5     ar
12    5     6     ar
13    5     30    1
14    6     7     ar
15    6     31    1
16    7     8     1
17    7     22    ar
18    8     19    1
19    8     9     ar
20    9     10    ar
21    9     13    ar
22    10    11    1
23    10    12    1
24    13    14    ar
25    13    32    1
26    14    15    ar
27    14    18    ar
28    15    16    1
29    15    17    1
30    18    19    1
31    18    33    1
32    19    20    1
33    19    21    1
34    20    34    1
35    20    35    1
36    20    36    1
37    21    37    1
38    21    38    1
39    21    39    1
40    22    23    ar
41    22    40    1
42    23    41    1
@<TRIPOS>SUBSTRUCTURE
1   ZINC000017040306 1     RESIDUE    1   A     ZIN   1
