@<TRIPOS>MOLECULE
ZINC000103648869
  21   23    0    0    0
SMALL
USER_CHARGES
NO_NAME
@<TRIPOS>ATOM
    1 O1        0.0021    -0.0041     0.0020 O.2    1 <0>      -0.5300
    2 C2       -0.0145     1.2162     0.0087 C.2    1 <0>       0.5500
    3 N3       -1.1051     2.0126     0.0293 N.am   1 <0>      -0.5600
    4 N4       -0.7241     3.3567     0.0307 N.2    1 <0>      -0.2500
    5 C5        0.5716     3.4757     0.0119 C.2    1 <0>       0.1600
    6 C6        1.1404     2.1087     0.0025 C.2    1 <0>      -0.3500
    7 C7        2.5037     1.9481    -0.0176 C.2    1 <0>       0.2800
    8 N8        3.3387     2.9995    -0.0285 N.pl3  1 <0>      -0.6000
    9 C9        2.8986     4.3120    -0.0206 C.ar   1 <0>       0.1600
   10 C10       3.8121     5.3600    -0.0322 C.ar   1 <0>      -0.1500
   11 C11       3.3663     6.6655    -0.0247 C.ar   1 <0>      -0.0700
   12 C12       2.0102     6.9486    -0.0056 C.ar   1 <0>      -0.1400
   13 C13       1.0873     5.9228     0.0062 C.ar   1 <0>      -0.0500
   14 C14       1.5244     4.6026     0.0035 C.ar   1 <0>      -0.0500
   15 H15      -2.0220     1.6964     0.0415 H      1 <0>       0.4400
   16 H16       2.9154     0.9497    -0.0244 H      1 <0>       0.1800
   17 H17       4.2940     2.8318    -0.0423 H      1 <0>       0.4300
   18 H18       4.8718     5.1519    -0.0468 H      1 <0>       0.1400
   19 H19       4.0814     7.4748    -0.0335 H      1 <0>       0.1400
   20 H20       1.6745     7.9751     0.0005 H      1 <0>       0.1400
   21 H21       0.0303     6.1442     0.0215 H      1 <0>       0.1400
@<TRIPOS>BOND
   1    1    2 2
   2    2    6 1
   3    2    3 am
   4    3    4 1
   5    3   15 1
   6    4    5 2
   7    5   14 1
   8    5    6 1
   9    6    7 2
  10    7    8 1
  11    7   16 1
  12    8    9 1
  13    8   17 1
  14    9   14 ar
  15    9   10 ar
  16   10   11 ar
  17   10   18 1
  18   11   12 ar
  19   11   19 1
  20   12   13 ar
  21   12   20 1
  22   13   14 ar
  23   13   21 1
