@<TRIPOS>MOLECULE
ZINC000001639355
  31   34    0    0    0
SMALL
USER_CHARGES
NO_NAME
@<TRIPOS>ATOM
    1 O1        0.0021    -0.0041     0.0020 O.2    1 <0>      -0.5200
    2 C2       -0.0144     1.2087     0.0087 C.2    1 <0>       0.5300
    3 C3       -1.3427     1.9236     0.0315 C.3    1 <0>      -0.0600
    4 C4       -1.4351     2.7563    -1.2233 C.2    1 <0>      -0.1500
    5 C5       -0.5453     3.7168    -1.5810 C.2    1 <0>       0.1300
    6 N6       -0.9129     4.2511    -2.8005 N.pl3  1 <0>      -0.5800
    7 C7       -2.0659     3.6591    -3.2329 C.ar   1 <0>       0.1200
    8 C8       -2.8358     3.8507    -4.3773 C.ar   1 <0>      -0.1200
    9 C9       -3.9713     3.0698    -4.5114 C.ar   1 <0>      -0.0700
   10 C10      -4.3421     2.1331    -3.5597 C.ar   1 <0>      -0.1200
   11 Br11     -5.9120     1.1157    -3.8359 Br     1 <0>      -0.0500
   12 C12      -3.5967     1.9203    -2.4133 C.ar   1 <0>      -0.0300
   13 C13      -2.4443     2.6989    -2.2578 C.ar   1 <0>      -0.0900
   14 C14       0.6163     4.1389    -0.7691 C.ar   1 <0>      -0.0600
   15 C15       0.9702     5.4928    -0.7853 C.ar   1 <0>      -0.0800
   16 C16       2.0215     5.9466    -0.0192 C.ar   1 <0>      -0.1300
   17 C17       2.7290     5.0604     0.7745 C.ar   1 <0>      -0.0800
   18 C18       2.3992     3.7222     0.7876 C.ar   1 <0>      -0.1400
   19 C19       1.3505     3.2382     0.0029 C.ar   1 <0>       0.1800
   20 N20       1.1397     1.8709     0.0012 N.am   1 <0>      -0.6600
   21 H21      -2.1539     1.1959     0.0528 H      1 <0>       0.1200
   22 H22      -1.4004     2.5686     0.9082 H      1 <0>       0.1100
   23 H23      -0.4263     4.9413    -3.2776 H      1 <0>       0.4200
   24 H24      -2.5595     4.5769    -5.1274 H      1 <0>       0.1400
   25 H25      -4.5897     3.1952    -5.3879 H      1 <0>       0.1300
   26 H26      -3.8901     1.1892    -1.6746 H      1 <0>       0.1400
   27 H27       0.4165     6.1854    -1.4019 H      1 <0>       0.1300
   28 H28       2.2933     6.9916    -0.0382 H      1 <0>       0.1300
   29 H29       3.5435     5.4192     1.3863 H      1 <0>       0.1300
   30 H30       2.9579     3.0406     1.4118 H      1 <0>       0.1400
   31 H31       1.9394     1.3221    -0.0122 H      1 <0>       0.4100
@<TRIPOS>BOND
   1    1    2 2
   2    2   20 am
   3    2    3 1
   4    3    4 1
   5    3   21 1
   6    3   22 1
   7    4   13 1
   8    4    5 2
   9    5    6 1
  10    5   14 1
  11    6    7 1
  12    6   23 1
  13    7   13 ar
  14    7    8 ar
  15    8    9 ar
  16    8   24 1
  17    9   10 ar
  18    9   25 1
  19   10   11 1
  20   10   12 ar
  21   12   13 ar
  22   12   26 1
  23   14   19 ar
  24   14   15 ar
  25   15   16 ar
  26   15   27 1
  27   16   17 ar
  28   16   28 1
  29   17   18 ar
  30   17   29 1
  31   18   19 ar
  32   18   30 1
  33   19   20 1
  34   20   31 1
