@<TRIPOS>MOLECULE
ZINC000201766557
51    54    1     0     0
SMALL
USER_CHARGES
@<TRIPOS>ATOM
1      C1     -1.5975    1.2481   -0.1555 C.3      1 ZINC000201766557   -0.0600
2      C2     -1.1601   -0.1935   -0.1194 C.2      1 ZINC000201766557    0.1700
3      N3     -0.7240   -0.8901   -1.1304 N.2      1 ZINC000201766557   -0.2800
4      N4     -0.4403   -2.0834   -0.7422 N.2      1 ZINC000201766557   -0.2700
5      C5     -0.6886   -2.1907    0.5456 C.2      1 ZINC000201766557    0.2600
6      C6     -0.4986   -3.3896    1.3739 C.2      1 ZINC000201766557   -0.2200
7      C7     -0.0300   -4.5856    0.9483 C.2      1 ZINC000201766557    0.1900
8      C8      0.3704   -4.8457   -0.4811 C.3      1 ZINC000201766557   -0.0900
9      N9      0.0465   -5.5003    1.8877 N.2      1 ZINC000201766557   -0.4700
10     C10    -0.3277   -5.1551    3.0826 C.2      1 ZINC000201766557    0.2900
11     N11    -0.3133   -5.9908    4.1896 N.am     1 ZINC000201766557   -0.6300
12     C12     0.1112   -7.2641    4.0672 C.2      1 ZINC000201766557    0.5000
13     O13     0.3902   -7.7079    2.9736 O.2      1 ZINC000201766557   -0.4300
14     C14     0.2394   -8.1364    5.2894 C.3      1 ZINC000201766557    0.1400
15     H15    -0.6437   -8.0148    5.9168 H        1 ZINC000201766557    0.1400
16     C16     1.4855   -7.7292    6.0783 C.3      1 ZINC000201766557   -0.1100
17     C17     1.3071   -6.3076    6.6153 C.3      1 ZINC000201766557   -0.1600
18     C18     1.6867   -8.6947    7.2480 C.3      1 ZINC000201766557   -0.1400
19     N19     0.3576   -9.5378    4.8790 N.am     1 ZINC000201766557   -0.5400
20     C20     1.3855   -9.9112    4.1008 C.2      1 ZINC000201766557    0.7100
21     O21     2.1921   -9.0684    3.7585 O.2      1 ZINC000201766557   -0.5100
22     N22     1.5615  -11.1769    3.6842 N.am     1 ZINC000201766557   -0.6400
23     C23     0.6669  -12.1724    4.0495 C.ar     1 ZINC000201766557    0.2000
24     C24     0.8295  -13.4840    3.6317 C.ar     1 ZINC000201766557   -0.1700
25     C25    -0.0841  -14.4448    4.0184 C.ar     1 ZINC000201766557   -0.0400
26     C26    -1.1636  -14.1110    4.8212 C.ar     1 ZINC000201766557   -0.1600
27     C27    -1.3420  -12.8108    5.2465 C.ar     1 ZINC000201766557   -0.0100
28     C28    -0.4277  -11.8326    4.8639 C.ar     1 ZINC000201766557   -0.2000
29     C29    -0.5669  -10.4302    5.2955 C.2      1 ZINC000201766557    0.5700
30     O30    -1.4922  -10.0847    6.0046 O.2      1 ZINC000201766557   -0.4900
31     S31    -0.8333   -3.5223    3.0985 S.3      1 ZINC000201766557    0.1900
32     O32    -1.1442   -0.9917    0.9643 O.3      1 ZINC000201766557   -0.2200
33     H33    -0.7407    1.8928    0.0405 H        1 ZINC000201766557    0.1000
34     H34    -2.0084    1.4787   -1.1384 H        1 ZINC000201766557    0.1100
35     H35    -2.3598    1.4157    0.6054 H        1 ZINC000201766557    0.0900
36     H36     1.4263   -4.6087   -0.6115 H        1 ZINC000201766557    0.0900
37     H37     0.2013   -5.8955   -0.7205 H        1 ZINC000201766557    0.0800
38     H38    -0.2269   -4.2208   -1.1451 H        1 ZINC000201766557    0.1000
39     H39    -0.6088   -5.6588    5.0518 H        1 ZINC000201766557    0.4300
40     H40     2.3569   -7.7639    5.4244 H        1 ZINC000201766557    0.1100
41     H41     0.3845   -6.2505    7.1928 H        1 ZINC000201766557    0.0700
42     H42     2.1523   -6.0520    7.2544 H        1 ZINC000201766557    0.0800
43     H43     1.2575   -5.6077    5.7812 H        1 ZINC000201766557    0.0600
44     H44     1.8138   -9.7074    6.8654 H        1 ZINC000201766557    0.0500
45     H45     2.5744   -8.4046    7.8100 H        1 ZINC000201766557    0.0700
46     H46     0.8153   -8.6600    7.9018 H        1 ZINC000201766557    0.0600
47     H47     2.3212  -11.3964    3.1224 H        1 ZINC000201766557    0.4400
48     H48     1.6673  -13.7535    3.0057 H        1 ZINC000201766557    0.1400
49     H49     0.0437  -15.4663    3.6918 H        1 ZINC000201766557    0.1400
50     H50    -1.8696  -14.8734    5.1154 H        1 ZINC000201766557    0.1400
51     H51    -2.1842  -12.5536    5.8716 H        1 ZINC000201766557    0.1500
@<TRIPOS>BOND
1     1     2     1
2     1     33    1
3     1     34    1
4     1     35    1
5     2     32    1
6     2     3     2
7     3     4     1
8     4     5     2
9     5     6     1
10    5     32    1
11    6     31    1
12    6     7     2
13    7     8     1
14    7     9     1
15    8     36    1
16    8     37    1
17    8     38    1
18    9     10    2
19    10    11    1
20    10    31    1
21    11    12    am
22    11    39    1
23    12    13    2
24    12    14    1
25    14    15    1
26    14    16    1
27    14    19    1
28    16    17    1
29    16    18    1
30    16    40    1
31    17    41    1
32    17    42    1
33    17    43    1
34    18    44    1
35    18    45    1
36    18    46    1
37    19    29    am
38    19    20    am
39    20    21    2
40    20    22    am
41    22    23    1
42    22    47    1
43    23    28    ar
44    23    24    ar
45    24    25    ar
46    24    48    1
47    25    26    ar
48    25    49    1
49    26    27    ar
50    26    50    1
51    27    28    ar
52    27    51    1
53    28    29    1
54    29    30    2
@<TRIPOS>SUBSTRUCTURE
1   ZINC000201766557 1     RESIDUE    1   A     ZIN   1
