@<TRIPOS>MOLECULE
ZINC000049066775
54    59    1     0     0
SMALL
USER_CHARGES
@<TRIPOS>ATOM
1      C1      0.0002    1.4733    0.0170 C.3      1 ZINC000049066775    0.0700
2      N2      0.0191    0.0084    0.0121 N.pl3    1 ZINC000049066775   -0.4700
3      C3      0.0206   -0.7656   -1.1076 C.2      1 ZINC000049066775    0.0900
4      C4      0.0404   -2.0829   -0.7553 C.2      1 ZINC000049066775   -0.1400
5      C5      0.0483   -3.2387   -1.6677 C.2      1 ZINC000049066775   -0.0200
6      C6      1.1230   -3.7055   -2.4155 C.2      1 ZINC000049066775   -0.0400
7      C7      2.4840   -3.1448   -2.4552 C.2      1 ZINC000049066775   -0.1000
8      C8      2.9458   -2.1787   -3.3002 C.2      1 ZINC000049066775    0.0800
9      C9      2.1476   -1.4898   -4.3851 C.3      1 ZINC000049066775    0.1600
10     N10     2.9597   -0.3609   -4.8730 N.am     1 ZINC000049066775   -0.5800
11     C11     2.4048    0.8448   -5.1077 C.2      1 ZINC000049066775    0.5800
12     N12     1.0712    1.0057   -4.9978 N.am     1 ZINC000049066775   -0.8000
13     S13     3.3940    2.1717   -5.5454 S.2      1 ZINC000049066775   -0.6200
14     C14     4.3950   -0.5919   -5.0951 C.3      1 ZINC000049066775    0.0900
15     C15     5.0660   -0.9124   -3.7569 C.3      1 ZINC000049066775    0.1000
16     N16     4.2645   -1.9115   -3.0343 N.pl3    1 ZINC000049066775   -0.4700
17     C17     4.6968   -2.7074   -2.0080 C.ar     1 ZINC000049066775    0.1100
18     C18     5.9365   -2.8168   -1.3812 C.ar     1 ZINC000049066775   -0.1300
19     C19     6.0430   -3.7392   -0.3538 C.ar     1 ZINC000049066775   -0.0900
20     C20     4.9767   -4.5260    0.0464 C.ar     1 ZINC000049066775   -0.1400
21     C21     3.7350   -4.4370   -0.5603 C.ar     1 ZINC000049066775   -0.0600
22     C22     3.6067   -3.5084   -1.5929 C.ar     1 ZINC000049066775   -0.0800
23     C23     0.6235   -4.8787   -3.1621 C.2      1 ZINC000049066775    0.5600
24     O24     1.2741   -5.5603   -3.9289 O.2      1 ZINC000049066775   -0.4400
25     N25    -0.6704   -5.0660   -2.8516 N.am     1 ZINC000049066775   -0.6900
26     C26    -1.0826   -4.1406   -1.9688 C.2      1 ZINC000049066775    0.5500
27     O27    -2.2013   -4.0543   -1.5029 O.2      1 ZINC000049066775   -0.4400
28     C28     0.0522   -2.1229    0.7177 C.ar     1 ZINC000049066775   -0.0700
29     C29     0.0727   -3.1518    1.6564 C.ar     1 ZINC000049066775   -0.0700
30     C30     0.0791   -2.8488    3.0006 C.ar     1 ZINC000049066775   -0.1400
31     C31     0.0647   -1.5268    3.4204 C.ar     1 ZINC000049066775   -0.1000
32     C32     0.0443   -0.4987    2.5028 C.ar     1 ZINC000049066775   -0.1200
33     C33     0.0440   -0.7834    1.1414 C.ar     1 ZINC000049066775    0.1000
34     H34     1.0230    1.8499    0.0050 H        1 ZINC000049066775    0.0700
35     H35    -0.5298    1.8328   -0.8650 H        1 ZINC000049066775    0.0800
36     H36    -0.5067    1.8270    0.9148 H        1 ZINC000049066775    0.0900
37     H37     0.0080   -0.3930   -2.1212 H        1 ZINC000049066775    0.1600
38     H38     1.9516   -2.1859   -5.2006 H        1 ZINC000049066775    0.1100
39     H39     1.2068   -1.1210   -3.9764 H        1 ZINC000049066775    0.1000
40     H40     0.5189    0.2742   -4.6804 H        1 ZINC000049066775    0.3900
41     H41     0.6637    1.8531   -5.2361 H        1 ZINC000049066775    0.4400
42     H42     4.5273   -1.4304   -5.7789 H        1 ZINC000049066775    0.1000
43     H43     4.8459    0.3032   -5.5235 H        1 ZINC000049066775    0.1500
44     H44     6.0651   -1.3093   -3.9372 H        1 ZINC000049066775    0.1100
45     H45     5.1383   -0.0034   -3.1597 H        1 ZINC000049066775    0.0900
46     H46     6.7769   -2.2096   -1.6834 H        1 ZINC000049066775    0.1300
47     H47     6.9907   -3.8488    0.1524 H        1 ZINC000049066775    0.1200
48     H48     5.1172   -5.2290    0.8541 H        1 ZINC000049066775    0.1200
49     H49     2.9054   -5.0529   -0.2458 H        1 ZINC000049066775    0.1300
50     H50    -1.2280   -5.7735   -3.2112 H        1 ZINC000049066775    0.4300
51     H51     0.0832   -4.1819    1.3322 H        1 ZINC000049066775    0.1200
52     H52     0.0950   -3.6445    3.7308 H        1 ZINC000049066775    0.1300
53     H53     0.0692   -1.3010    4.4765 H        1 ZINC000049066775    0.1300
54     H54     0.0333    0.5271    2.8404 H        1 ZINC000049066775    0.1200
@<TRIPOS>BOND
1     1     2     1
2     1     34    1
3     1     35    1
4     1     36    1
5     2     33    1
6     2     3     1
7     3     4     2
8     3     37    1
9     4     5     1
10    4     28    1
11    5     26    1
12    5     6     2
13    6     7     1
14    6     23    1
15    7     22    1
16    7     8     2
17    8     16    1
18    8     9     1
19    9     10    1
20    9     38    1
21    9     39    1
22    10    11    am
23    10    14    1
24    11    12    am
25    11    13    2
26    12    40    1
27    12    41    1
28    14    15    1
29    14    42    1
30    14    43    1
31    15    16    1
32    15    44    1
33    15    45    1
34    16    17    1
35    17    22    ar
36    17    18    ar
37    18    19    ar
38    18    46    1
39    19    20    ar
40    19    47    1
41    20    21    ar
42    20    48    1
43    21    22    ar
44    21    49    1
45    23    24    2
46    23    25    am
47    25    26    am
48    25    50    1
49    26    27    2
50    28    33    ar
51    28    29    ar
52    29    30    ar
53    29    51    1
54    30    31    ar
55    30    52    1
56    31    32    ar
57    31    53    1
58    32    33    ar
59    32    54    1
@<TRIPOS>SUBSTRUCTURE
1   ZINC000049066775 1     RESIDUE    1   A     ZIN   1
