@<TRIPOS>MOLECULE
ZINC000067773573
49    52    1     0     0
SMALL
USER_CHARGES
@<TRIPOS>ATOM
1      C1     -0.2767    1.4771    0.2938 C.3      1 ZINC000067773573    0.0200
2      O2     -0.1845    0.0549    0.1901 O.3      1 ZINC000067773573   -0.2900
3      C3     -1.3520   -0.6343    0.1069 C.ar     1 ZINC000067773573    0.1900
4      C4     -2.5555    0.0501    0.1196 C.ar     1 ZINC000067773573   -0.2600
5      C5     -3.7529   -0.6469    0.0350 C.ar     1 ZINC000067773573    0.2400
6      C6     -3.7375   -2.0522   -0.0641 C.ar     1 ZINC000067773573   -0.1700
7      C7     -4.9632   -2.7569   -0.1496 C.2      1 ZINC000067773573    0.0000
8      C8     -6.1291   -2.0625   -0.1342 C.2      1 ZINC000067773573   -0.1900
9      C9     -7.4412   -2.7983   -0.2238 C.3      1 ZINC000067773573    0.1000
10     N10    -7.9664   -3.0293    1.1285 N.3      1 ZINC000067773573   -0.4800
11     C11    -6.9909   -3.7905    1.9570 C.3      1 ZINC000067773573    0.0700
12     C12    -7.8510   -4.4916    2.9891 C.ar     1 ZINC000067773573   -0.1000
13     C13    -7.5694   -4.9951    4.2420 C.ar     1 ZINC000067773573   -0.1000
14     C14    -8.5685   -5.5995    4.9837 C.ar     1 ZINC000067773573   -0.1200
15     C15    -9.8477   -5.6992    4.4697 C.ar     1 ZINC000067773573   -0.1200
16     C16   -10.1305   -5.1940    3.2134 C.ar     1 ZINC000067773573   -0.1000
17     C17    -9.1344   -4.5913    2.4736 C.ar     1 ZINC000067773573   -0.1000
18     C18    -9.1310   -3.9568    1.0974 C.3      1 ZINC000067773573    0.0700
19     C19    -6.1189   -0.6572   -0.0344 C.2      1 ZINC000067773573    0.5500
20     O20    -7.1753   -0.0486   -0.0215 O.2      1 ZINC000067773573   -0.5200
21     N21    -4.9606    0.0239    0.0475 N.am     1 ZINC000067773573   -0.6300
22     C22    -2.5102   -2.7386   -0.0767 C.ar     1 ZINC000067773573    0.1800
23     O23    -2.4858   -4.0935   -0.1721 O.3      1 ZINC000067773573   -0.3200
24     C24    -2.4235   -4.8289    1.0515 C.3      1 ZINC000067773573    0.0400
25     C25    -1.3281   -2.0255    0.0037 C.ar     1 ZINC000067773573    0.0200
26     O26    -0.1366   -2.6843   -0.0081 O.3      1 ZINC000067773573   -0.3100
27     C27     0.4650   -2.9143   -1.2837 C.3      1 ZINC000067773573    0.0400
28     H28     0.7250    1.9028    0.3527 H        1 ZINC000067773573    0.1100
29     H29    -0.7886    1.8730   -0.5834 H        1 ZINC000067773573    0.0600
30     H30    -0.8368    1.7404    1.1910 H        1 ZINC000067773573    0.0600
31     H31    -2.5627    1.1274    0.1957 H        1 ZINC000067773573    0.1500
32     H32    -4.9699   -3.8342   -0.2264 H        1 ZINC000067773573    0.1400
33     H33    -8.1540   -2.2020   -0.7934 H        1 ZINC000067773573    0.1000
34     H34    -7.2878   -3.7553   -0.7224 H        1 ZINC000067773573    0.0500
35     H35    -6.4575   -4.5188    1.3461 H        1 ZINC000067773573    0.0600
36     H36    -6.2900   -3.1111    2.4421 H        1 ZINC000067773573    0.0900
37     H37    -6.5698   -4.9178    4.6435 H        1 ZINC000067773573    0.1200
38     H38    -8.3488   -5.9939    5.9648 H        1 ZINC000067773573    0.1300
39     H39   -10.6269   -6.1716    5.0495 H        1 ZINC000067773573    0.1300
40     H40   -11.1300   -5.2721    2.8119 H        1 ZINC000067773573    0.1200
41     H41   -10.0552   -3.4038    0.9297 H        1 ZINC000067773573    0.1000
42     H42    -8.9941   -4.7159    0.3273 H        1 ZINC000067773573    0.0600
43     H43    -4.9741    0.9914    0.1156 H        1 ZINC000067773573    0.4200
44     H44    -3.3215   -4.6351    1.6381 H        1 ZINC000067773573    0.0500
45     H45    -2.3559   -5.8944    0.8320 H        1 ZINC000067773573    0.1000
46     H46    -1.5455   -4.5182    1.6179 H        1 ZINC000067773573    0.0600
47     H47    -0.1782   -3.5642   -1.8769 H        1 ZINC000067773573    0.0500
48     H48     0.5964   -1.9635   -1.8002 H        1 ZINC000067773573    0.0500
49     H49     1.4359   -3.3906   -1.1469 H        1 ZINC000067773573    0.1000
@<TRIPOS>BOND
1     1     2     1
2     1     28    1
3     1     29    1
4     1     30    1
5     2     3     1
6     3     25    ar
7     3     4     ar
8     4     5     ar
9     4     31    1
10    5     21    1
11    5     6     ar
12    6     7     1
13    6     22    ar
14    7     8     2
15    7     32    1
16    8     9     1
17    8     19    1
18    9     10    1
19    9     33    1
20    9     34    1
21    10    18    1
22    10    11    1
23    11    12    1
24    11    35    1
25    11    36    1
26    12    17    ar
27    12    13    ar
28    13    14    ar
29    13    37    1
30    14    15    ar
31    14    38    1
32    15    16    ar
33    15    39    1
34    16    17    ar
35    16    40    1
36    17    18    1
37    18    41    1
38    18    42    1
39    19    20    2
40    19    21    am
41    21    43    1
42    22    23    1
43    22    25    ar
44    23    24    1
45    24    44    1
46    24    45    1
47    24    46    1
48    25    26    1
49    26    27    1
50    27    47    1
51    27    48    1
52    27    49    1
@<TRIPOS>SUBSTRUCTURE
1   ZINC000067773573 1     RESIDUE    1   A     ZIN   1
