@<TRIPOS>MOLECULE
ZINC000145514653
60    64    1     0     0
SMALL
USER_CHARGES
@<TRIPOS>ATOM
1      C1      0.1417    1.4511    1.6995 C.3      1 ZINC000145514653    0.0200
2      O2      0.1053    0.1759    1.0555 O.3      1 ZINC000145514653   -0.3100
3      C3     -1.0835   -0.4862    1.0632 C.ar     1 ZINC000145514653    0.0900
4      C4     -2.1895    0.0832    1.6722 C.ar     1 ZINC000145514653   -0.1400
5      C5     -3.3978   -0.5881    1.6809 C.ar     1 ZINC000145514653   -0.1100
6      C6     -3.5054   -1.8347    1.0791 C.ar     1 ZINC000145514653    0.1500
7      N7     -4.7295   -2.5131    1.0887 N.pl3    1 ZINC000145514653   -0.6300
8      C8     -5.9171   -1.8008    1.0293 C.2      1 ZINC000145514653    0.4800
9      N9     -5.8976   -0.4959    0.8553 N.2      1 ZINC000145514653   -0.5200
10     C10    -7.0373    0.2150    0.7946 C.2      1 ZINC000145514653    0.1800
11     C11    -6.9711    1.6840    0.5974 C.ar     1 ZINC000145514653   -0.0500
12     C12    -8.1451    2.4342    0.5384 C.ar     1 ZINC000145514653   -0.0800
13     C13    -8.0863    3.8022    0.3548 C.ar     1 ZINC000145514653   -0.1200
14     C14    -6.8666    4.4357    0.2286 C.ar     1 ZINC000145514653   -0.0700
15     C15    -5.6835    3.6954    0.2855 C.ar     1 ZINC000145514653   -0.1300
16     C16    -4.3773    4.3742    0.1498 C.2      1 ZINC000145514653    0.5500
17     O17    -3.3486    3.7284    0.1996 O.2      1 ZINC000145514653   -0.5100
18     N18    -4.3269    5.7091   -0.0290 N.am     1 ZINC000145514653   -0.6600
19     C19    -3.0990    6.3379   -0.2605 C.ar     1 ZINC000145514653    0.1100
20     C20    -2.1062    5.6809   -0.9779 C.ar     1 ZINC000145514653   -0.1200
21     C21    -0.8903    6.2973   -1.2094 C.ar     1 ZINC000145514653   -0.1200
22     C22    -0.6539    7.5691   -0.7304 C.ar     1 ZINC000145514653   -0.0900
23     C23    -1.6453    8.2391   -0.0083 C.ar     1 ZINC000145514653   -0.1200
24     C24    -1.3958    9.5998    0.5051 C.2      1 ZINC000145514653    0.5200
25     O25    -0.3199   10.1434    0.2989 O.co2    1 ZINC000145514653   -0.6800
26     O26    -2.2649   10.1840    1.1367 O.co2    1 ZINC000145514653   -0.6900
27     C27    -2.8745    7.6184    0.2207 C.ar     1 ZINC000145514653   -0.1000
28     C28    -5.7375    2.3159    0.4768 C.ar     1 ZINC000145514653   -0.0200
29     C29    -8.2488   -0.3898    0.9106 C.2      1 ZINC000145514653   -0.0600
30     N30    -8.3188   -1.7446    1.0927 N.pl3    1 ZINC000145514653   -0.3200
31     C31    -9.3515   -2.6191    1.2393 C.2      1 ZINC000145514653   -0.0700
32     C32    -8.8116   -3.8522    1.3874 C.2      1 ZINC000145514653    0.0200
33     N33    -7.4834   -3.7433    1.3340 N.2      1 ZINC000145514653   -0.4600
34     C34    -7.1593   -2.4753    1.1499 C.2      1 ZINC000145514653    0.1400
35     C35    -2.3983   -2.4082    0.4671 C.ar     1 ZINC000145514653   -0.2000
36     C36    -1.1894   -1.7333    0.4539 C.ar     1 ZINC000145514653    0.1200
37     O37    -0.1041   -2.2927   -0.1447 O.3      1 ZINC000145514653   -0.3000
38     C38    -0.2829   -3.5794   -0.7402 C.3      1 ZINC000145514653    0.0300
39     H39     1.1452    1.8693    1.6208 H        1 ZINC000145514653    0.1000
40     H40    -0.5702    2.1217    1.2183 H        1 ZINC000145514653    0.0700
41     H41    -0.1220    1.3349    2.7507 H        1 ZINC000145514653    0.0500
42     H42    -2.1077    1.0526    2.1412 H        1 ZINC000145514653    0.1400
43     H43    -4.2590   -0.1426    2.1567 H        1 ZINC000145514653    0.1400
44     H44    -4.7468   -3.4817    1.1370 H        1 ZINC000145514653    0.4300
45     H45    -9.1027    1.9446    0.6361 H        1 ZINC000145514653    0.1300
46     H46    -8.9987    4.3784    0.3095 H        1 ZINC000145514653    0.1400
47     H47    -6.8269    5.5054    0.0852 H        1 ZINC000145514653    0.1300
48     H48    -5.1421    6.2338    0.0027 H        1 ZINC000145514653    0.4100
49     H49    -2.2851    4.6850   -1.3556 H        1 ZINC000145514653    0.1200
50     H50    -0.1229    5.7810   -1.7669 H        1 ZINC000145514653    0.1200
51     H51     0.2973    8.0469   -0.9131 H        1 ZINC000145514653    0.1300
52     H52    -3.6450    8.1308    0.7777 H        1 ZINC000145514653    0.1300
53     H53    -4.8258    1.7386    0.5216 H        1 ZINC000145514653    0.1500
54     H54    -9.1540    0.1971    0.8594 H        1 ZINC000145514653    0.1700
55     H55   -10.4036   -2.3754    1.2380 H        1 ZINC000145514653    0.1900
56     H56    -9.3639   -4.7699    1.5259 H        1 ZINC000145514653    0.1900
57     H57    -2.4813   -3.3778   -0.0011 H        1 ZINC000145514653    0.1400
58     H58     0.6577   -3.9096   -1.1811 H        1 ZINC000145514653    0.1000
59     H59    -0.5967   -4.2922    0.0223 H        1 ZINC000145514653    0.0500
60     H60    -1.0460   -3.5177   -1.5161 H        1 ZINC000145514653    0.0500
@<TRIPOS>BOND
1     1     2     1
2     1     39    1
3     1     40    1
4     1     41    1
5     2     3     1
6     3     36    ar
7     3     4     ar
8     4     5     ar
9     4     42    1
10    5     6     ar
11    5     43    1
12    6     7     1
13    6     35    ar
14    7     8     1
15    7     44    1
16    8     34    1
17    8     9     2
18    9     10    1
19    10    11    1
20    10    29    2
21    11    28    ar
22    11    12    ar
23    12    13    ar
24    12    45    1
25    13    14    ar
26    13    46    1
27    14    15    ar
28    14    47    1
29    15    16    1
30    15    28    ar
31    16    17    2
32    16    18    am
33    18    19    1
34    18    48    1
35    19    27    ar
36    19    20    ar
37    20    21    ar
38    20    49    1
39    21    22    ar
40    21    50    1
41    22    23    ar
42    22    51    1
43    23    24    1
44    23    27    ar
45    24    25    ar
46    24    26    ar
47    27    52    1
48    28    53    1
49    29    30    1
50    29    54    1
51    30    34    1
52    30    31    1
53    31    32    2
54    31    55    1
55    32    33    1
56    32    56    1
57    33    34    2
58    35    36    ar
59    35    57    1
60    36    37    1
61    37    38    1
62    38    58    1
63    38    59    1
64    38    60    1
@<TRIPOS>SUBSTRUCTURE
1   ZINC000145514653 1     RESIDUE    1   A     ZIN   1
