@<TRIPOS>MOLECULE
ZINC000043204023
56    59    1     0     0
SMALL
USER_CHARGES
@<TRIPOS>ATOM
1      N1      0.1709    1.0071    0.1305 N.4      1 ZINC000043204023   -0.6300
2      H2      0.1846   -0.0018    0.1246 H        1 ZINC000043204023    0.4500
3      H3      1.1069    1.3553    0.2743 H        1 ZINC000043204023    0.4400
4      H4     -0.1813    1.3438   -0.7530 H        1 ZINC000043204023    0.4300
5      C5     -0.6992    1.4786    1.2162 C.3      1 ZINC000043204023    0.0400
6      C6     -0.7230    2.9854    1.2241 C.2      1 ZINC000043204023    0.5000
7      O7     -0.7218    3.5863    2.2775 O.2      1 ZINC000043204023   -0.4600
8      N8     -0.7457    3.6651    0.0605 N.am     1 ZINC000043204023   -0.7200
9      C9     -0.7689    5.1299    0.0682 C.3      1 ZINC000043204023    0.1900
10     H10    -1.3553    5.4795    0.9179 H        1 ZINC000043204023    0.1100
11     C11     0.6611    5.6620    0.1820 C.3      1 ZINC000043204023   -0.1300
12     C12     1.2489    5.2593    1.5360 C.3      1 ZINC000043204023    0.0800
13     O13     2.5845    5.7563    1.6422 O.3      1 ZINC000043204023   -0.5700
14     C14    -1.3904    5.6292   -1.2106 C.ar     1 ZINC000043204023   -0.1000
15     C15    -1.1041    5.0020   -2.4088 C.ar     1 ZINC000043204023   -0.1100
16     C16    -1.6738    5.4595   -3.5821 C.ar     1 ZINC000043204023   -0.1000
17     C17    -2.5308    6.5453   -3.5571 C.ar     1 ZINC000043204023   -0.0300
18     Cl18   -3.2472    7.1201   -5.0302 Cl       1 ZINC000043204023   -0.0500
19     C19    -2.8170    7.1726   -2.3576 C.ar     1 ZINC000043204023   -0.1000
20     C20    -2.2511    6.7107   -1.1843 C.ar     1 ZINC000043204023   -0.0900
21     C21    -2.1182    0.9442    1.0034 C.3      1 ZINC000043204023   -0.1300
22     C22    -3.0053    1.3878    2.1689 C.3      1 ZINC000043204023    0.0600
23     N23    -2.4533    0.8741    3.4290 N.3      1 ZINC000043204023   -0.4700
24     C24    -3.3001    1.1460    4.4884 C.ar     1 ZINC000043204023    0.4000
25     C25    -2.9695    0.7501    5.7932 C.ar     1 ZINC000043204023   -0.2200
26     C26    -1.8454    0.0473    6.4090 C.2      1 ZINC000043204023   -0.1800
27     C27    -2.1109   -0.0335    7.7231 C.2      1 ZINC000043204023    0.0700
28     N28    -3.3159    0.5628    7.9912 N.pl3    1 ZINC000043204023   -0.5700
29     C29    -3.8644    1.0501    6.8369 C.ar     1 ZINC000043204023    0.3300
30     N30    -4.9900    1.6992    6.5435 N.ar     1 ZINC000043204023   -0.5400
31     C31    -5.2589    2.0518    5.3050 C.ar     1 ZINC000043204023    0.3400
32     N32    -4.4455    1.7940    4.2968 N.ar     1 ZINC000043204023   -0.5700
33     C33    -1.1095    1.4112    3.6781 C.3      1 ZINC000043204023    0.0300
34     C34    -0.1658    0.9682    2.5577 C.3      1 ZINC000043204023   -0.1200
35     H35    -0.7467    3.1844   -0.7820 H        1 ZINC000043204023    0.3900
36     H36     1.2701    5.2411   -0.6181 H        1 ZINC000043204023    0.0800
37     H37     0.6521    6.7487    0.0985 H        1 ZINC000043204023    0.1000
38     H38     0.6399    5.6802    2.3360 H        1 ZINC000043204023    0.0600
39     H39     1.2579    4.1726    1.6194 H        1 ZINC000043204023    0.0300
40     H40     3.0202    5.5379    2.4774 H        1 ZINC000043204023    0.3900
41     H41    -0.4348    4.1546   -2.4282 H        1 ZINC000043204023    0.1200
42     H42    -1.4498    4.9696   -4.5181 H        1 ZINC000043204023    0.1400
43     H43    -3.4857    8.0204   -2.3376 H        1 ZINC000043204023    0.1400
44     H44    -2.4747    7.2000   -0.2478 H        1 ZINC000043204023    0.1400
45     H45    -2.5195    1.3387    0.0699 H        1 ZINC000043204023    0.1000
46     H46    -2.0941   -0.1446    0.9584 H        1 ZINC000043204023    0.1200
47     H47    -3.0400    2.4767    2.2048 H        1 ZINC000043204023    0.0700
48     H48    -4.0129    0.9969    2.0277 H        1 ZINC000043204023    0.1200
49     H49    -0.9698   -0.3336    5.9044 H        1 ZINC000043204023    0.1500
50     H50    -1.4712   -0.4991    8.4582 H        1 ZINC000043204023    0.1900
51     H51    -3.7202    0.6291    8.8704 H        1 ZINC000043204023    0.4300
52     H52    -6.1814    2.5765    5.1048 H        1 ZINC000043204023    0.2000
53     H53    -1.1531    2.4999    3.7070 H        1 ZINC000043204023    0.1000
54     H54    -0.7402    1.0372    4.6330 H        1 ZINC000043204023    0.1100
55     H55    -0.1110   -0.1202    2.5371 H        1 ZINC000043204023    0.1100
56     H56     0.8278    1.3799    2.7346 H        1 ZINC000043204023    0.1000
@<TRIPOS>BOND
1     1     2     1
2     1     3     1
3     1     4     1
4     1     5     1
5     5     34    1
6     5     6     1
7     5     21    1
8     6     7     2
9     6     8     am
10    8     9     1
11    8     35    1
12    9     10    1
13    9     11    1
14    9     14    1
15    11    12    1
16    11    36    1
17    11    37    1
18    12    13    1
19    12    38    1
20    12    39    1
21    13    40    1
22    14    20    ar
23    14    15    ar
24    15    16    ar
25    15    41    1
26    16    17    ar
27    16    42    1
28    17    18    1
29    17    19    ar
30    19    20    ar
31    19    43    1
32    20    44    1
33    21    22    1
34    21    45    1
35    21    46    1
36    22    23    1
37    22    47    1
38    22    48    1
39    23    24    1
40    23    33    1
41    24    32    ar
42    24    25    ar
43    25    29    ar
44    25    26    1
45    26    27    2
46    26    49    1
47    27    28    1
48    27    50    1
49    28    29    1
50    28    51    1
51    29    30    ar
52    30    31    ar
53    31    32    ar
54    31    52    1
55    33    34    1
56    33    53    1
57    33    54    1
58    34    55    1
59    34    56    1
@<TRIPOS>SUBSTRUCTURE
1   ZINC000043204023 1     RESIDUE    1   A     ZIN   1
