@<TRIPOS>MOLECULE
ZINC000013489184
  51   53    0    0    0
SMALL
USER_CHARGES
NO_NAME
@<TRIPOS>ATOM
    1 C1       -0.1034     1.4617     0.0603 C.3    1 <0>      -0.0500
    2 N2       -0.0698    -0.0068     0.0443 N.4    1 <0>      -0.5100
    3 H3       -1.0130    -0.3650     0.0553 H      1 <0>       0.4300
    4 H4        0.4005    -0.3234    -0.7904 H      1 <0>       0.4300
    5 C5        0.6524    -0.4930     1.2275 C.3    1 <0>      -0.0100
    6 C6        0.6875    -2.0225     1.2108 C.3    1 <0>      -0.1700
    7 C7        1.4397    -2.5289     2.4432 C.3    1 <0>       0.1400
    8 N8        1.4732    -3.9934     2.4272 N.pl3  1 <0>      -0.7200
    9 C9        2.1040    -4.6819     3.4476 C.ar   1 <0>       0.4500
   10 C10       2.1414    -6.0939     3.4293 C.ar   1 <0>      -0.2000
   11 C11       1.5528    -6.8386     2.3971 C.ar   1 <0>      -0.0300
   12 C12       1.6365    -8.2033     2.4584 C.ar   1 <0>      -0.1900
   13 C13       2.2912    -8.8135     3.5239 C.ar   1 <0>       0.1600
   14 N14       2.8409    -8.1130     4.4890 N.ar   1 <0>      -0.4800
   15 C15       2.7941    -6.7794     4.4859 C.ar   1 <0>       0.2000
   16 C16       3.3779    -6.0142     5.5109 C.ar   1 <0>      -0.2000
   17 C17       3.2925    -4.6359     5.4448 C.ar   1 <0>       0.2400
   18 C18       3.9052    -3.8216     6.5210 C.ar   1 <0>      -0.1200
   19 C19       4.5628    -4.4459     7.5808 C.ar   1 <0>      -0.0400
   20 C20       5.1317    -3.6867     8.5805 C.ar   1 <0>      -0.2000
   21 C21       5.0500    -2.2993     8.5333 C.ar   1 <0>       0.2300
   22 N22       5.6264    -1.5331     9.5461 N.pl3  1 <0>      -0.6300
   23 C23       6.2067    -2.1888    10.7207 C.3    1 <0>       0.0900
   24 C24       5.6517    -0.0725     9.4354 C.3    1 <0>       0.0900
   25 C25       4.3948    -1.6748     7.4777 C.ar   1 <0>      -0.2100
   26 C26       3.8299    -2.4297     6.4726 C.ar   1 <0>      -0.0200
   27 N27       2.6751    -4.0202     4.4346 N.ar   1 <0>      -0.5500
   28 H28       0.9155     1.8486     0.0484 H      1 <0>       0.1200
   29 H29      -0.6393     1.8224    -0.8177 H      1 <0>       0.1300
   30 H30      -0.6114     1.8037     0.9620 H      1 <0>       0.1200
   31 H31       1.6714    -0.1061     1.2156 H      1 <0>       0.1400
   32 H32       0.1444    -0.1510     2.1292 H      1 <0>       0.1400
   33 H33      -0.3315    -2.4094     1.2227 H      1 <0>       0.0900
   34 H34       1.1955    -2.3645     0.3091 H      1 <0>       0.0900
   35 H35       2.4586    -2.1420     2.4313 H      1 <0>       0.0800
   36 H36       0.9317    -2.1869     3.3449 H      1 <0>       0.0800
   37 H37       1.0530    -4.4803     1.7010 H      1 <0>       0.4100
   38 H38       1.0477    -6.3493     1.5775 H      1 <0>       0.1300
   39 H39       1.1939    -8.8068     1.6798 H      1 <0>       0.1400
   40 H40       2.3484    -9.8915     3.5583 H      1 <0>       0.1700
   41 H41       3.8837    -6.4947     6.3354 H      1 <0>       0.1500
   42 H42       4.6259    -5.5234     7.6182 H      1 <0>       0.1300
   43 H43       5.6410    -4.1697     9.4013 H      1 <0>       0.1300
   44 H44       7.2590    -2.4034    10.5342 H      1 <0>       0.0500
   45 H45       6.1176    -1.5309    11.5851 H      1 <0>       0.0700
   46 H46       5.6751    -3.1201    10.9165 H      1 <0>       0.0700
   47 H47       5.0996     0.2341     8.5470 H      1 <0>       0.0800
   48 H48       5.1903     0.3669    10.3197 H      1 <0>       0.0600
   49 H49       6.6842     0.2681     9.3570 H      1 <0>       0.0600
   50 H50       4.3326    -0.5971     7.4431 H      1 <0>       0.1300
   51 H51       3.3215    -1.9442     5.6527 H      1 <0>       0.1300
@<TRIPOS>BOND
   1    1    2 1
   2    1   28 1
   3    1   29 1
   4    1   30 1
   5    2    3 1
   6    2    4 1
   7    2    5 1
   8    5    6 1
   9    5   31 1
  10    5   32 1
  11    6    7 1
  12    6   33 1
  13    6   34 1
  14    7    8 1
  15    7   35 1
  16    7   36 1
  17    8    9 1
  18    8   37 1
  19    9   27 ar
  20    9   10 ar
  21   10   15 ar
  22   10   11 ar
  23   11   12 ar
  24   11   38 1
  25   12   13 ar
  26   12   39 1
  27   13   14 ar
  28   13   40 1
  29   14   15 ar
  30   15   16 ar
  31   16   17 ar
  32   16   41 1
  33   17   18 1
  34   17   27 ar
  35   18   26 ar
  36   18   19 ar
  37   19   20 ar
  38   19   42 1
  39   20   21 ar
  40   20   43 1
  41   21   22 1
  42   21   25 ar
  43   22   23 1
  44   22   24 1
  45   23   44 1
  46   23   45 1
  47   23   46 1
  48   24   47 1
  49   24   48 1
  50   24   49 1
  51   25   26 ar
  52   25   50 1
  53   26   51 1
