@<TRIPOS>MOLECULE
ZINC000000688078
  49   53    0    0    0
SMALL
USER_CHARGES
NO_NAME
@<TRIPOS>ATOM
    1 C1       -2.1775    -4.4849     2.4768 C.3    1 <0>       0.0700
    2 N2       -1.0292    -3.9459     1.7439 N.am   1 <0>      -0.5500
    3 C3       -0.4666    -4.6494     0.7373 C.2    1 <0>       0.4900
    4 O4       -0.9286    -5.7227     0.4121 O.2    1 <0>      -0.5000
    5 C5        0.7375    -4.0950     0.0195 C.3    1 <0>       0.0500
    6 O6        0.6732    -2.6667     0.0052 O.3    1 <0>      -0.3000
    7 C7        0.3649    -2.0568     1.1810 C.ar   1 <0>       0.0900
    8 C8        0.8993    -0.8173     1.4917 C.ar   1 <0>      -0.1000
    9 C9        0.5801    -0.2070     2.6882 C.ar   1 <0>      -0.0700
   10 C10      -0.2802    -0.8366     3.5873 C.ar   1 <0>      -0.0300
   11 C11      -0.6215    -0.1802     4.8706 C.2    1 <0>       0.1800
   12 N12      -0.8548     1.1070     4.9074 N.2    1 <0>      -0.2200
   13 N13      -1.1802     1.7769     6.0871 N.am   1 <0>      -0.4200
   14 C14      -1.4265     3.2203     6.0413 C.3    1 <0>       0.1700
   15 C15      -0.1322     3.9582     6.2680 C.ar   1 <0>      -0.1200
   16 C16       0.2566     4.2936     7.5514 C.ar   1 <0>      -0.0900
   17 C17       1.4439     4.9705     7.7593 C.ar   1 <0>      -0.1300
   18 C18       2.2425     5.3115     6.6837 C.ar   1 <0>      -0.1100
   19 C19       1.8542     4.9753     5.4004 C.ar   1 <0>      -0.1300
   20 C20       0.6690     4.2947     5.1929 C.ar   1 <0>      -0.0900
   21 C21      -1.2748     1.1331     7.2685 C.2    1 <0>       0.5300
   22 O22      -1.5614     1.7421     8.2837 O.2    1 <0>      -0.5100
   23 C23      -1.0273    -0.3141     7.3115 C.ar   1 <0>      -0.1200
   24 C24      -1.1085    -1.0403     8.4985 C.ar   1 <0>      -0.0500
   25 C25      -0.8666    -2.3967     8.4828 C.ar   1 <0>      -0.1100
   26 C26      -0.5432    -3.0447     7.2983 C.ar   1 <0>      -0.0900
   27 C27      -0.4578    -2.3458     6.1140 C.ar   1 <0>      -0.1100
   28 C28      -0.7048    -0.9742     6.1051 C.ar   1 <0>      -0.0500
   29 C29      -0.8197    -2.0855     3.2762 C.ar   1 <0>      -0.1100
   30 C30      -0.5009    -2.6890     2.0729 C.ar   1 <0>       0.1000
   31 H31      -3.0999    -4.1746     1.9861 H      1 <0>       0.0700
   32 H32      -2.1215    -5.5734     2.4903 H      1 <0>       0.0900
   33 H33      -2.1653    -4.1079     3.4995 H      1 <0>       0.0800
   34 H34       1.6446    -4.4123     0.5340 H      1 <0>       0.1000
   35 H35       0.7527    -4.4677    -1.0047 H      1 <0>       0.1500
   36 H36       1.5665    -0.3279     0.7976 H      1 <0>       0.1500
   37 H37       0.9977     0.7595     2.9286 H      1 <0>       0.1400
   38 H38      -1.8319     3.4890     5.0659 H      1 <0>       0.1000
   39 H39      -2.1405     3.4919     6.8189 H      1 <0>       0.1100
   40 H40      -0.3673     4.0272     8.3917 H      1 <0>       0.1300
   41 H41       1.7473     5.2331     8.7619 H      1 <0>       0.1200
   42 H42       3.1697     5.8409     6.8461 H      1 <0>       0.1200
   43 H43       2.4780     5.2420     4.5601 H      1 <0>       0.1200
   44 H44       0.3656     4.0320     4.1902 H      1 <0>       0.1300
   45 H45      -1.3588    -0.5432     9.4240 H      1 <0>       0.1400
   46 H46      -0.9289    -2.9613     9.4013 H      1 <0>       0.1400
   47 H47      -0.3562    -4.1084     7.3054 H      1 <0>       0.1400
   48 H48      -0.2052    -2.8583     5.1975 H      1 <0>       0.1400
   49 H49      -1.4862    -2.5764     3.9699 H      1 <0>       0.1400
@<TRIPOS>BOND
   1    1    2 1
   2    1   31 1
   3    1   32 1
   4    1   33 1
   5    2   30 1
   6    2    3 am
   7    3    4 2
   8    3    5 1
   9    5    6 1
  10    5   34 1
  11    5   35 1
  12    6    7 1
  13    7   30 ar
  14    7    8 ar
  15    8    9 ar
  16    8   36 1
  17    9   10 ar
  18    9   37 1
  19   10   11 1
  20   10   29 ar
  21   11   28 1
  22   11   12 2
  23   12   13 1
  24   13   14 1
  25   13   21 am
  26   14   15 1
  27   14   38 1
  28   14   39 1
  29   15   20 ar
  30   15   16 ar
  31   16   17 ar
  32   16   40 1
  33   17   18 ar
  34   17   41 1
  35   18   19 ar
  36   18   42 1
  37   19   20 ar
  38   19   43 1
  39   20   44 1
  40   21   22 2
  41   21   23 1
  42   23   28 ar
  43   23   24 ar
  44   24   25 ar
  45   24   45 1
  46   25   26 ar
  47   25   46 1
  48   26   27 ar
  49   26   47 1
  50   27   28 ar
  51   27   48 1
  52   29   30 ar
  53   29   49 1
