@<TRIPOS>MOLECULE
ZINC000034021557
  45   46    0    0    0
SMALL
USER_CHARGES
NO_NAME
@<TRIPOS>ATOM
    1 C1       -0.0178     1.4648     0.0101 C.3    1 <0>      -0.0500
    2 N2        0.0021    -0.0041     0.0020 N.4    1 <0>      -0.3900
    3 H3        0.4744    -0.3295    -0.8281 H      1 <0>       0.4300
    4 C4        0.7126    -0.4907     1.1921 C.3    1 <0>      -0.0500
    5 C5       -1.3761    -0.5125     0.0124 C.3    1 <0>       0.0000
    6 C6       -2.0780    -0.1101    -1.2861 C.3    1 <0>       0.0200
    7 O7       -1.4443    -0.7583    -2.3908 O.3    1 <0>      -0.3300
    8 C8       -1.9498    -0.5061    -3.6269 C.ar   1 <0>       0.1100
    9 C9       -3.0307     0.3532    -3.7707 C.ar   1 <0>      -0.1900
   10 C10      -3.5465     0.6116    -5.0230 C.ar   1 <0>      -0.0800
   11 C11      -2.9804     0.0080    -6.1472 C.ar   1 <0>      -0.0100
   12 C12      -3.5299     0.2826    -7.4918 C.2    1 <0>      -0.2400
   13 C13      -3.0664    -0.2466    -8.6327 C.2    1 <0>      -0.0600
   14 C14      -3.7610     0.1740    -9.7710 C.2    1 <0>      -0.2400
   15 C15      -3.4277    -0.2772   -11.1261 C.2    1 <0>       0.5900
   16 N16      -2.4085    -1.1379   -11.3181 N.am   1 <0>      -0.8500
   17 O17      -4.0714     0.1257   -12.0772 O.2    1 <0>      -0.5600
   18 C18      -4.7847     1.0486    -9.5014 C.2    1 <0>       0.1100
   19 N19      -5.6192     1.6070   -10.4558 N.am   1 <0>      -0.6300
   20 C20      -6.5962     2.4570   -10.0824 C.2    1 <0>       0.7000
   21 N21      -7.4080     3.0003   -11.0110 N.am   1 <0>      -0.8400
   22 O22      -6.7452     2.7337    -8.9079 O.2    1 <0>      -0.5600
   23 S23      -4.8893     1.3438    -7.8246 S.3    1 <0>       0.3400
   24 C24      -1.8936    -0.8554    -5.9982 C.ar   1 <0>      -0.0700
   25 C25      -1.3802    -1.1041    -4.7430 C.ar   1 <0>      -0.1300
   26 H26       1.0047     1.8421     0.0024 H      1 <0>       0.1300
   27 H27      -0.5450     1.8259    -0.8730 H      1 <0>       0.1200
   28 H28      -0.5280     1.8163     0.9069 H      1 <0>       0.1200
   29 H29       0.2024    -0.1392     2.0889 H      1 <0>       0.1200
   30 H30       0.7273    -1.5806     1.1861 H      1 <0>       0.1200
   31 H31       1.7352    -0.1134     1.1844 H      1 <0>       0.1300
   32 H32      -1.3618    -1.5992     0.0960 H      1 <0>       0.1400
   33 H33      -1.9129    -0.0898     0.8617 H      1 <0>       0.1500
   34 H34      -3.1251    -0.4096    -1.2411 H      1 <0>       0.1100
   35 H35      -2.0144     0.9705    -1.4137 H      1 <0>       0.0900
   36 H36      -3.4684     0.8195    -2.9005 H      1 <0>       0.1300
   37 H37      -4.3876     1.2799    -5.1340 H      1 <0>       0.1300
   38 H38      -2.2338    -0.9336    -8.6694 H      1 <0>       0.1400
   39 H39      -1.8954    -1.4589   -10.5601 H      1 <0>       0.4000
   40 H40      -2.1880    -1.4362   -12.2144 H      1 <0>       0.4100
   41 H41      -5.5003     1.3863   -11.3929 H      1 <0>       0.4300
   42 H42      -7.2891     2.7796   -11.9480 H      1 <0>       0.4100
   43 H43      -8.1112     3.6121   -10.7422 H      1 <0>       0.4300
   44 H44      -1.4527    -1.3244    -6.8655 H      1 <0>       0.1400
   45 H45      -0.5394    -1.7719    -4.6268 H      1 <0>       0.1400
@<TRIPOS>BOND
   1    1    2 1
   2    1   26 1
   3    1   27 1
   4    1   28 1
   5    2    3 1
   6    2    4 1
   7    2    5 1
   8    4   29 1
   9    4   30 1
  10    4   31 1
  11    5    6 1
  12    5   32 1
  13    5   33 1
  14    6    7 1
  15    6   34 1
  16    6   35 1
  17    7    8 1
  18    8   25 ar
  19    8    9 ar
  20    9   10 ar
  21    9   36 1
  22   10   11 ar
  23   10   37 1
  24   11   12 1
  25   11   24 ar
  26   12   23 1
  27   12   13 2
  28   13   14 1
  29   13   38 1
  30   14   15 1
  31   14   18 2
  32   15   16 am
  33   15   17 2
  34   16   39 1
  35   16   40 1
  36   18   19 1
  37   18   23 1
  38   19   20 am
  39   19   41 1
  40   20   21 am
  41   20   22 2
  42   21   42 1
  43   21   43 1
  44   24   25 ar
  45   24   44 1
  46   25   45 1
