@<TRIPOS>MOLECULE
ZINC000064512848
86    90    1     0     0
SMALL
USER_CHARGES
@<TRIPOS>ATOM
1      C1     -0.0187    1.5258    0.0104 C.3      1 ZINC000064512848   -0.1400
2      C2      0.0021   -0.0041    0.0020 C.3      1 ZINC000064512848   -0.0300
3      C3      0.7421   -0.5109    1.2415 C.3      1 ZINC000064512848   -0.1400
4      C4     -1.4333   -0.5336    0.0129 C.3      1 ZINC000064512848   -0.1500
5      C5      0.7074   -0.4901   -1.2379 C.ar     1 ZINC000064512848   -0.0500
6      C6      0.0361   -1.2843   -2.1485 C.ar     1 ZINC000064512848   -0.1100
7      C7      0.6831   -1.7301   -3.2859 C.ar     1 ZINC000064512848   -0.1000
8      C8      2.0014   -1.3813   -3.5127 C.ar     1 ZINC000064512848   -0.1300
9      C9      2.7069   -1.8677   -4.7524 C.3      1 ZINC000064512848    0.2400
10     O10     1.7578   -2.0285   -5.8085 O.3      1 ZINC000064512848   -0.5500
11     C11     3.7666   -0.8462   -5.1701 C.3      1 ZINC000064512848   -0.1300
12     C12     3.1128    0.5267   -5.3392 C.3      1 ZINC000064512848   -0.0100
13     N13     4.1303    1.5075   -5.7402 N.4      1 ZINC000064512848   -0.3900
14     H14     4.8977    1.5009   -5.0852 H        1 ZINC000064512848    0.4200
15     C15     4.6223    1.2046   -7.1086 C.3      1 ZINC000064512848   -0.0100
16     C16     5.2043    2.5596   -7.5840 C.3      1 ZINC000064512848   -0.1500
17     C17     4.2161    3.5884   -6.9883 C.3      1 ZINC000064512848   -0.1400
18     C18     3.5345    2.8591   -5.8143 C.3      1 ZINC000064512848   -0.0100
19     C19     3.3695   -3.1908   -4.4668 C.ar     1 ZINC000064512848   -0.1100
20     C20     4.6659   -3.2251   -3.9888 C.ar     1 ZINC000064512848   -0.1000
21     C21     5.2741   -4.4384   -3.7262 C.ar     1 ZINC000064512848   -0.1000
22     C22     4.5850   -5.6183   -3.9419 C.ar     1 ZINC000064512848   -0.0300
23     Cl23    5.3479   -7.1423   -3.6119 Cl       1 ZINC000064512848   -0.0500
24     C24     3.2871   -5.5832   -4.4205 C.ar     1 ZINC000064512848   -0.0600
25     C25     2.5355   -6.8681   -4.6553 C.3      1 ZINC000064512848   -0.0900
26     C26     2.9705   -7.4768   -5.9899 C.3      1 ZINC000064512848    0.0700
27     O27     2.2577   -8.6952   -6.2126 O.3      1 ZINC000064512848   -0.3100
28     C28     2.5285   -9.3669   -7.3617 C.ar     1 ZINC000064512848    0.1100
29     C29     3.4669   -8.8639   -8.2536 C.ar     1 ZINC000064512848   -0.2000
30     C30     3.7440   -9.5431   -9.4206 C.ar     1 ZINC000064512848   -0.0800
31     C31     3.0809  -10.7368   -9.7054 C.ar     1 ZINC000064512848   -0.0500
32     C32     3.3767  -11.4697  -10.9587 C.ar     1 ZINC000064512848   -0.0700
33     C33     4.3241  -10.9681  -11.8527 C.ar     1 ZINC000064512848   -0.1300
34     C34     4.5986  -11.6448  -13.0130 C.ar     1 ZINC000064512848   -0.0900
35     C35     3.9290  -12.8389  -13.3006 C.ar     1 ZINC000064512848   -0.1200
36     C36     4.2231  -13.5677  -14.5467 C.2      1 ZINC000064512848    0.5200
37     O37     5.0532  -13.1287  -15.3307 O.co2    1 ZINC000064512848   -0.6900
38     O38     3.6371  -14.6118  -14.7975 O.co2    1 ZINC000064512848   -0.6800
39     C39     2.9801  -13.3405  -12.4033 C.ar     1 ZINC000064512848   -0.0900
40     C40     2.7117  -12.6641  -11.2414 C.ar     1 ZINC000064512848   -0.1200
41     C41     2.1390  -11.2392   -8.8075 C.ar     1 ZINC000064512848   -0.0800
42     C42     1.8706  -10.5581   -7.6395 C.ar     1 ZINC000064512848   -0.1400
43     C43     2.6783   -4.3695   -4.6776 C.ar     1 ZINC000064512848   -0.0900
44     C44     2.6723   -0.5859   -2.6027 C.ar     1 ZINC000064512848   -0.1200
45     C45     2.0241   -0.1370   -1.4673 C.ar     1 ZINC000064512848   -0.1100
46     H46     1.0039    1.9031    0.0027 H        1 ZINC000064512848    0.0600
47     H47    -0.5459    1.8868   -0.8726 H        1 ZINC000064512848    0.0600
48     H48    -0.5289    1.8773    0.9072 H        1 ZINC000064512848    0.0600
49     H49     0.2319   -0.1594    2.1383 H        1 ZINC000064512848    0.0600
50     H50     0.7568   -1.6008    1.2356 H        1 ZINC000064512848    0.0600
51     H51     1.7647   -0.1336    1.2338 H        1 ZINC000064512848    0.0600
52     H52    -1.9605   -0.1726   -0.8702 H        1 ZINC000064512848    0.0600
53     H53    -1.4185   -1.6235    0.0069 H        1 ZINC000064512848    0.0600
54     H54    -1.9435   -0.1821    0.9097 H        1 ZINC000064512848    0.0600
55     H55    -0.9938   -1.5568   -1.9713 H        1 ZINC000064512848    0.1300
56     H56     0.1588   -2.3512   -3.9970 H        1 ZINC000064512848    0.1200
57     H57     1.0550   -2.6631   -5.6126 H        1 ZINC000064512848    0.3900
58     H58     4.5385   -0.7890   -4.4026 H        1 ZINC000064512848    0.1000
59     H59     4.2153   -1.1538   -6.1146 H        1 ZINC000064512848    0.1000
60     H60     2.3409    0.4695   -6.1066 H        1 ZINC000064512848    0.1400
61     H61     2.6641    0.8343   -4.3947 H        1 ZINC000064512848    0.1300
62     H62     5.4000    0.4415   -7.0777 H        1 ZINC000064512848    0.1400
63     H63     3.8004    0.8918   -7.7525 H        1 ZINC000064512848    0.1400
64     H64     6.2066    2.7107   -7.1833 H        1 ZINC000064512848    0.1000
65     H65     5.2104    2.6161   -8.6725 H        1 ZINC000064512848    0.1200
66     H66     4.7543    4.4646   -6.6268 H        1 ZINC000064512848    0.1000
67     H67     3.4767    3.8788   -7.7346 H        1 ZINC000064512848    0.1000
68     H68     2.4627    2.7820   -5.9971 H        1 ZINC000064512848    0.1300
69     H69     3.7176    3.3990   -4.8853 H        1 ZINC000064512848    0.1300
70     H70     5.2040   -2.3039   -3.8207 H        1 ZINC000064512848    0.1300
71     H71     6.2873   -4.4652   -3.3530 H        1 ZINC000064512848    0.1400
72     H72     2.7522   -7.5685   -3.8487 H        1 ZINC000064512848    0.1000
73     H73     1.4652   -6.6634   -4.6810 H        1 ZINC000064512848    0.0900
74     H74     2.7537   -6.7765   -6.7965 H        1 ZINC000064512848    0.0600
75     H75     4.0408   -7.6815   -5.9642 H        1 ZINC000064512848    0.0700
76     H76     3.9797   -7.9395   -8.0326 H        1 ZINC000064512848    0.1200
77     H77     4.4736   -9.1513  -10.1139 H        1 ZINC000064512848    0.1300
78     H78     4.8409  -10.0462  -11.6304 H        1 ZINC000064512848    0.1100
79     H79     5.3312  -11.2560  -13.7048 H        1 ZINC000064512848    0.1300
80     H80     2.4622  -14.2623  -12.6238 H        1 ZINC000064512848    0.1300
81     H81     1.9792  -13.0510  -10.5485 H        1 ZINC000064512848    0.1200
82     H82     1.6239  -12.1632   -9.0251 H        1 ZINC000064512848    0.1400
83     H83     1.1415  -10.9465   -6.9439 H        1 ZINC000064512848    0.1300
84     H84     1.6652   -4.3420   -5.0508 H        1 ZINC000064512848    0.1300
85     H85     3.7021   -0.3131   -2.7802 H        1 ZINC000064512848    0.1200
86     H86     2.5483    0.4845   -0.7563 H        1 ZINC000064512848    0.1300
@<TRIPOS>BOND
1     1     2     1
2     1     46    1
3     1     47    1
4     1     48    1
5     2     3     1
6     2     4     1
7     2     5     1
8     3     49    1
9     3     50    1
10    3     51    1
11    4     52    1
12    4     53    1
13    4     54    1
14    5     45    ar
15    5     6     ar
16    6     7     ar
17    6     55    1
18    7     8     ar
19    7     56    1
20    8     9     1
21    8     44    ar
22    9     10    1
23    9     11    1
24    9     19    1
25    10    57    1
26    11    12    1
27    11    58    1
28    11    59    1
29    12    13    1
30    12    60    1
31    12    61    1
32    13    14    1
33    13    18    1
34    13    15    1
35    15    16    1
36    15    62    1
37    15    63    1
38    16    17    1
39    16    64    1
40    16    65    1
41    17    18    1
42    17    66    1
43    17    67    1
44    18    68    1
45    18    69    1
46    19    43    ar
47    19    20    ar
48    20    21    ar
49    20    70    1
50    21    22    ar
51    21    71    1
52    22    23    1
53    22    24    ar
54    24    25    1
55    24    43    ar
56    25    26    1
57    25    72    1
58    25    73    1
59    26    27    1
60    26    74    1
61    26    75    1
62    27    28    1
63    28    42    ar
64    28    29    ar
65    29    30    ar
66    29    76    1
67    30    31    ar
68    30    77    1
69    31    32    1
70    31    41    ar
71    32    40    ar
72    32    33    ar
73    33    34    ar
74    33    78    1
75    34    35    ar
76    34    79    1
77    35    36    1
78    35    39    ar
79    36    37    ar
80    36    38    ar
81    39    40    ar
82    39    80    1
83    40    81    1
84    41    42    ar
85    41    82    1
86    42    83    1
87    43    84    1
88    44    45    ar
89    44    85    1
90    45    86    1
@<TRIPOS>SUBSTRUCTURE
1   ZINC000064512848 1     RESIDUE    1   A     ZIN   1
