@<TRIPOS>MOLECULE
ZINC000000122874
  38   39    0    0    0
SMALL
USER_CHARGES
NO_NAME
@<TRIPOS>ATOM
    1 C1       -0.0187     1.5258     0.0104 C.3    1 <0>      -0.1400
    2 C2        0.0021    -0.0041     0.0020 C.3    1 <0>       0.0100
    3 C3        0.7421    -0.5109     1.2415 C.3    1 <0>      -0.1400
    4 C4       -1.4333    -0.5336     0.0129 C.3    1 <0>      -0.1500
    5 C5        0.7074    -0.4901    -1.2379 C.2    1 <0>      -0.0200
    6 C6        1.9875    -0.2328    -1.5922 C.2    1 <0>      -0.1800
    7 C7        2.1448    -0.9185    -2.8293 C.2    1 <0>      -0.0500
    8 C8        3.3661    -0.9745    -3.6682 C.2    1 <0>       0.5200
    9 O9        4.3739    -0.3924    -3.3148 O.2    1 <0>      -0.4200
   10 C10       3.3590    -1.7326    -4.9255 C.2    1 <0>       0.0000
   11 C11       4.5385    -1.7867    -5.7357 C.1    1 <0>       0.2200
   12 N12       5.4742    -1.8296    -6.3784 N.1    1 <0>      -0.3700
   13 N13       2.2662    -2.3638    -5.3088 N.2    1 <0>      -0.0600
   14 N14       2.2599    -3.0299    -6.4135 N.pl3  1 <0>      -0.4700
   15 C15       1.1043    -3.6974    -6.8188 C.ar   1 <0>       0.1600
   16 C16      -0.0433    -3.6412    -6.0365 C.ar   1 <0>      -0.1200
   17 C17      -1.1861    -4.3028    -6.4407 C.ar   1 <0>      -0.0800
   18 C18      -1.1903    -5.0212    -7.6221 C.ar   1 <0>      -0.1200
   19 C19      -0.0493    -5.0802    -8.4042 C.ar   1 <0>      -0.0100
   20 Cl20     -0.0598    -5.9836    -9.8866 Cl     1 <0>      -0.0500
   21 C21       1.0957    -4.4156    -8.0089 C.ar   1 <0>      -0.1400
   22 N22       0.9922    -1.4907    -3.0770 N.2    1 <0>      -0.3000
   23 O23       0.1901    -1.2658    -2.2006 O.3    1 <0>       0.1300
   24 H24       1.0039     1.9031     0.0027 H      1 <0>       0.0600
   25 H25      -0.5459     1.8868    -0.8726 H      1 <0>       0.0600
   26 H26      -0.5289     1.8773     0.9072 H      1 <0>       0.0700
   27 H27       0.2319    -0.1594     2.1383 H      1 <0>       0.0700
   28 H28       0.7568    -1.6008     1.2356 H      1 <0>       0.0600
   29 H29       1.7647    -0.1336     1.2338 H      1 <0>       0.0600
   30 H30      -1.9605    -0.1726    -0.8702 H      1 <0>       0.0600
   31 H31      -1.4185    -1.6235     0.0069 H      1 <0>       0.0600
   32 H32      -1.9435    -0.1821     0.9097 H      1 <0>       0.0700
   33 H33       2.7196     0.3565    -1.0601 H      1 <0>       0.1800
   34 H34       3.0589    -3.0665    -6.9623 H      1 <0>       0.4000
   35 H35      -0.0411    -3.0809    -5.1132 H      1 <0>       0.1600
   36 H36      -2.0779    -4.2592    -5.8330 H      1 <0>       0.1500
   37 H37      -2.0855    -5.5378    -7.9353 H      1 <0>       0.1400
   38 H38       1.9857    -4.4617    -8.6191 H      1 <0>       0.1400
@<TRIPOS>BOND
   1    1    2 1
   2    1   24 1
   3    1   25 1
   4    1   26 1
   5    2    3 1
   6    2    4 1
   7    2    5 1
   8    3   27 1
   9    3   28 1
  10    3   29 1
  11    4   30 1
  12    4   31 1
  13    4   32 1
  14    5   23 1
  15    5    6 2
  16    6    7 1
  17    6   33 1
  18    7    8 1
  19    7   22 2
  20    8    9 2
  21    8   10 1
  22   10   11 1
  23   10   13 2
  24   11   12 3
  25   13   14 1
  26   14   15 1
  27   14   34 1
  28   15   21 ar
  29   15   16 ar
  30   16   17 ar
  31   16   35 1
  32   17   18 ar
  33   17   36 1
  34   18   19 ar
  35   18   37 1
  36   19   20 1
  37   19   21 ar
  38   21   38 1
  39   22   23 1
