@<TRIPOS>MOLECULE
ZINC000036184574
75    79    1     0     0
SMALL
USER_CHARGES
@<TRIPOS>ATOM
1      C1      4.0235   -1.0129    2.4307 C.3      1 ZINC000036184574   -0.1600
2      C2      2.6104   -1.5972    2.4845 C.3      1 ZINC000036184574   -0.0700
3      C3      2.6893   -3.0961    2.7812 C.3      1 ZINC000036184574   -0.1700
4      C4      1.8120   -0.9003    3.5880 C.3      1 ZINC000036184574   -0.1500
5      C5      1.9170   -1.3796    1.1382 C.3      1 ZINC000036184574   -0.1400
6      C6      2.7851   -1.9566    0.0182 C.3      1 ZINC000036184574    0.0600
7      H7      3.8104   -1.5980    0.1091 H        1 ZINC000036184574    0.1700
8      N8      2.7500   -3.4437    0.0470 N.4      1 ZINC000036184574   -0.5100
9      H9      3.4223   -3.7993    0.7100 H        1 ZINC000036184574    0.4400
10     H10     1.8230   -3.7700    0.2757 H        1 ZINC000036184574    0.4400
11     C11     3.1193   -3.8485   -1.3347 C.3      1 ZINC000036184574    0.0100
12     H12     4.1997   -3.7971   -1.4699 H        1 ZINC000036184574    0.1700
13     C13     2.6201   -5.2403   -1.6257 C.2      1 ZINC000036184574    0.5100
14     O14     1.7262   -5.7159   -0.9580 O.2      1 ZINC000036184574   -0.5100
15     N15     3.1669   -5.9566   -2.6279 N.am     1 ZINC000036184574   -0.7000
16     C16     2.6368   -7.2827   -2.9545 C.3      1 ZINC000036184574    0.1100
17     C17     3.4293   -7.8757   -4.1211 C.3      1 ZINC000036184574    0.0400
18     N18     2.8978   -9.2054   -4.4485 N.3      1 ZINC000036184574   -0.5300
19     C19     2.7018  -10.0084   -3.2328 C.3      1 ZINC000036184574    0.0100
20     C20     2.0924  -11.3604   -3.6134 C.3      1 ZINC000036184574    0.0600
21     O21     2.9432  -12.0113   -4.5609 O.3      1 ZINC000036184574   -0.3800
22     C22     3.1552  -11.2573   -5.7575 C.3      1 ZINC000036184574    0.0600
23     C23     3.7754   -9.9043   -5.3986 C.3      1 ZINC000036184574    0.0200
24     C24     2.4125   -2.8181   -2.2455 C.3      1 ZINC000036184574   -0.0200
25     H25     1.4526   -3.2071   -2.5854 H        1 ZINC000036184574    0.1300
26     C26     3.2854   -2.4736   -3.4246 C.ar     1 ZINC000036184574   -0.1300
27     C27     4.6519   -2.3494   -3.2599 C.ar     1 ZINC000036184574   -0.0900
28     C28     5.4537   -2.0338   -4.3412 C.ar     1 ZINC000036184574   -0.1100
29     C29     4.8900   -1.8415   -5.5884 C.ar     1 ZINC000036184574   -0.0600
30     C30     3.5226   -1.9648   -5.7560 C.ar     1 ZINC000036184574   -0.0700
31     Cl31    2.8141   -1.7229   -7.3223 Cl       1 ZINC000036184574   -0.0200
32     C32     2.7193   -2.2871   -4.6741 C.ar     1 ZINC000036184574    0.1400
33     F33     1.3835   -2.4078   -4.8360 F        1 ZINC000036184574   -0.1200
34     C34     2.2068   -1.5852   -1.3538 C.3      1 ZINC000036184574   -0.0600
35     C35     0.7519   -1.2166   -1.2519 C.2      1 ZINC000036184574    0.5400
36     O36    -0.1450   -1.9172   -0.8327 O.2      1 ZINC000036184574   -0.4700
37     N37     0.6385    0.0425   -1.7171 N.am     1 ZINC000036184574   -0.6500
38     C38     1.8677    0.5671   -2.1223 C.ar     1 ZINC000036184574    0.1700
39     C39     2.1947    1.8110   -2.6554 C.ar     1 ZINC000036184574   -0.1300
40     C40     3.5038    2.1037   -2.9836 C.ar     1 ZINC000036184574    0.0200
41     Cl41    3.9014    3.6577   -3.6474 Cl       1 ZINC000036184574   -0.0300
42     C42     4.5001    1.1640   -2.7853 C.ar     1 ZINC000036184574   -0.1200
43     C43     4.1825   -0.0747   -2.2564 C.ar     1 ZINC000036184574   -0.0500
44     C44     2.8785   -0.3706   -1.9287 C.ar     1 ZINC000036184574   -0.1500
45     H45     4.5923   -1.5095    1.6446 H        1 ZINC000036184574    0.0500
46     H46     3.9673    0.0549    2.2194 H        1 ZINC000036184574    0.0700
47     H47     4.5175   -1.1680    3.3899 H        1 ZINC000036184574    0.0800
48     H48     2.7424   -3.2509    3.8588 H        1 ZINC000036184574    0.0900
49     H49     1.8026   -3.5919    2.3861 H        1 ZINC000036184574    0.0600
50     H50     3.5792   -3.5134    2.3099 H        1 ZINC000036184574    0.0500
51     H51     1.7558    0.1676    3.3767 H        1 ZINC000036184574    0.0600
52     H52     0.8054   -1.3165    3.6263 H        1 ZINC000036184574    0.0600
53     H53     2.3061   -1.0553    4.5472 H        1 ZINC000036184574    0.0700
54     H54     0.9492   -1.8811    1.1427 H        1 ZINC000036184574    0.1100
55     H55     1.7723   -0.3121    0.9724 H        1 ZINC000036184574    0.1200
56     H56     3.9114   -5.5940   -3.1330 H        1 ZINC000036184574    0.4100
57     H57     2.7272   -7.9342   -2.0853 H        1 ZINC000036184574    0.0900
58     H58     1.5872   -7.1953   -3.2354 H        1 ZINC000036184574    0.0900
59     H59     3.3389   -7.2241   -4.9902 H        1 ZINC000036184574    0.0900
60     H60     4.4789   -7.9630   -3.8402 H        1 ZINC000036184574    0.0500
61     H61     3.6623  -10.1672   -2.7427 H        1 ZINC000036184574    0.0500
62     H62     2.0287   -9.4838   -2.5546 H        1 ZINC000036184574    0.0900
63     H63     1.9982  -11.9809   -2.7223 H        1 ZINC000036184574    0.1000
64     H64     1.1081  -11.2045   -4.0550 H        1 ZINC000036184574    0.0600
65     H65     3.8297  -11.8033   -6.4171 H        1 ZINC000036184574    0.1000
66     H66     2.2018  -11.0984   -6.2614 H        1 ZINC000036184574    0.0600
67     H67     3.8860   -9.3037   -6.3015 H        1 ZINC000036184574    0.0900
68     H68     4.7531  -10.0614   -4.9431 H        1 ZINC000036184574    0.0500
69     H69     5.0938   -2.4986   -2.2858 H        1 ZINC000036184574    0.1400
70     H70     6.5215   -1.9371   -4.2110 H        1 ZINC000036184574    0.1500
71     H71     5.5173   -1.5947   -6.4322 H        1 ZINC000036184574    0.1500
72     H72    -0.1997    0.5282   -1.7653 H        1 ZINC000036184574    0.4300
73     H73     1.4222    2.5491   -2.8132 H        1 ZINC000036184574    0.1500
74     H74     5.5227    1.3967   -3.0430 H        1 ZINC000036184574    0.1500
75     H75     4.9582   -0.8099   -2.1009 H        1 ZINC000036184574    0.1500
@<TRIPOS>BOND
1     1     2     1
2     1     45    1
3     1     46    1
4     1     47    1
5     2     3     1
6     2     4     1
7     2     5     1
8     3     48    1
9     3     49    1
10    3     50    1
11    4     51    1
12    4     52    1
13    4     53    1
14    5     6     1
15    5     54    1
16    5     55    1
17    6     7     1
18    6     34    1
19    6     8     1
20    8     9     1
21    8     10    1
22    8     11    1
23    11    12    1
24    11    13    1
25    11    24    1
26    13    14    2
27    13    15    am
28    15    16    1
29    15    56    1
30    16    17    1
31    16    57    1
32    16    58    1
33    17    18    1
34    17    59    1
35    17    60    1
36    18    23    1
37    18    19    1
38    19    20    1
39    19    61    1
40    19    62    1
41    20    21    1
42    20    63    1
43    20    64    1
44    21    22    1
45    22    23    1
46    22    65    1
47    22    66    1
48    23    67    1
49    23    68    1
50    24    25    1
51    24    26    1
52    24    34    1
53    26    32    ar
54    26    27    ar
55    27    28    ar
56    27    69    1
57    28    29    ar
58    28    70    1
59    29    30    ar
60    29    71    1
61    30    31    1
62    30    32    ar
63    32    33    1
64    34    44    1
65    34    35    1
66    35    36    2
67    35    37    am
68    37    38    1
69    37    72    1
70    38    44    ar
71    38    39    ar
72    39    40    ar
73    39    73    1
74    40    41    1
75    40    42    ar
76    42    43    ar
77    42    74    1
78    43    44    ar
79    43    75    1
@<TRIPOS>SUBSTRUCTURE
1   ZINC000036184574 1     RESIDUE    1   A     ZIN   1
