@<TRIPOS>MOLECULE
ZINC000001666542
  49   49    0    0    0
SMALL
USER_CHARGES
NO_NAME
@<TRIPOS>ATOM
    1 C1       -0.0187     1.5258     0.0104 C.3    1 <0>      -0.1500
    2 C2        0.0021    -0.0041     0.0020 C.3    1 <0>      -0.1200
    3 C3        0.7182    -0.4975    -1.2568 C.3    1 <0>      -0.1300
    4 C4        0.7390    -2.0273    -1.2652 C.3    1 <0>      -0.1100
    5 C5        1.4551    -2.5207    -2.5240 C.3    1 <0>      -0.1000
    6 C6        0.7151    -2.0139    -3.7635 C.3    1 <0>      -0.1000
    7 C7       -0.7203    -2.5435    -3.7527 C.3    1 <0>      -0.1000
    8 C8       -1.4491    -2.0443    -4.9736 C.ar   1 <0>      -0.0300
    9 C9       -2.1318    -0.8431    -4.9280 C.ar   1 <0>      -0.1100
   10 C10      -2.8004    -0.3852    -6.0479 C.ar   1 <0>      -0.0500
   11 C11      -2.7859    -1.1282    -7.2135 C.ar   1 <0>      -0.0500
   12 N12      -3.5022    -0.6381    -8.4125 N.pl3  1 <0>       0.0300
   13 O13      -4.1044     0.4199    -8.3722 O.2    1 <0>      -0.1600
   14 O14      -3.4895    -1.2928    -9.4395 O.2    1 <0>      -0.1600
   15 C15      -2.1021    -2.3287    -7.2595 C.ar   1 <0>      -0.0500
   16 C16      -1.4304    -2.7848    -6.1407 C.ar   1 <0>      -0.1100
   17 C17       1.4755    -4.0276    -2.5323 C.2    1 <0>       0.3700
   18 C18       2.1274    -4.7660    -3.6728 C.3    1 <0>      -0.2100
   19 O19       0.9695    -4.6433    -1.6250 O.2    1 <0>      -0.4300
   20 C20       2.8689    -1.9991    -2.5347 C.2    1 <0>       0.4800
   21 O21       3.2460    -1.2943    -3.4408 O.2    1 <0>      -0.4900
   22 O22       3.7093    -2.3175    -1.5377 O.3    1 <0>      -0.3500
   23 C23       5.0559    -1.7796    -1.6134 C.3    1 <0>       0.0600
   24 C24       5.8608    -2.2470    -0.3992 C.3    1 <0>      -0.1500
   25 H25       1.0039     1.9031     0.0027 H      1 <0>       0.0500
   26 H26      -0.5459     1.8868    -0.8726 H      1 <0>       0.0500
   27 H27      -0.5289     1.8773     0.9072 H      1 <0>       0.0600
   28 H28       0.5293    -0.3651     0.8851 H      1 <0>       0.0600
   29 H29      -1.0205    -0.3814     0.0098 H      1 <0>       0.0600
   30 H30       0.1910    -0.1364    -2.1398 H      1 <0>       0.0700
   31 H31       1.7408    -0.1202    -1.2645 H      1 <0>       0.0600
   32 H32       1.2661    -2.3884    -0.3821 H      1 <0>       0.0900
   33 H33      -0.2836    -2.4046    -1.2575 H      1 <0>       0.0900
   34 H34       0.7003    -0.9240    -3.7575 H      1 <0>       0.1000
   35 H35       1.2253    -2.3654    -4.6603 H      1 <0>       0.0900
   36 H36      -0.7055    -3.6334    -3.7587 H      1 <0>       0.0800
   37 H37      -1.2305    -2.1920    -2.8559 H      1 <0>       0.0900
   38 H38      -2.1431    -0.2626    -4.0173 H      1 <0>       0.1500
   39 H39      -3.3343     0.5529    -6.0121 H      1 <0>       0.1600
   40 H40      -2.0906    -2.9090    -8.1702 H      1 <0>       0.1600
   41 H41      -0.8961    -3.7227    -6.1766 H      1 <0>       0.1500
   42 H42       2.5252    -4.0483    -4.3903 H      1 <0>       0.0800
   43 H43       2.9392    -5.3839    -3.2889 H      1 <0>       0.1000
   44 H44       1.3894    -5.4001    -4.1642 H      1 <0>       0.1000
   45 H45       5.5370    -2.1319    -2.5258 H      1 <0>       0.0700
   46 H46       5.0121    -0.6905    -1.6230 H      1 <0>       0.0700
   47 H47       6.8717    -1.8432    -0.4560 H      1 <0>       0.0800
   48 H48       5.3797    -1.8947     0.5132 H      1 <0>       0.0700
   49 H49       5.9046    -3.3361    -0.3896 H      1 <0>       0.0700
@<TRIPOS>BOND
   1    1    2 1
   2    1   25 1
   3    1   26 1
   4    1   27 1
   5    2    3 1
   6    2   28 1
   7    2   29 1
   8    3    4 1
   9    3   30 1
  10    3   31 1
  11    4    5 1
  12    4   32 1
  13    4   33 1
  14    5    6 1
  15    5   17 1
  16    5   20 1
  17    6    7 1
  18    6   34 1
  19    6   35 1
  20    7    8 1
  21    7   36 1
  22    7   37 1
  23    8   16 ar
  24    8    9 ar
  25    9   10 ar
  26    9   38 1
  27   10   11 ar
  28   10   39 1
  29   11   12 1
  30   11   15 ar
  31   12   13 2
  32   12   14 2
  33   15   16 ar
  34   15   40 1
  35   16   41 1
  36   17   18 1
  37   17   19 2
  38   18   42 1
  39   18   43 1
  40   18   44 1
  41   20   21 2
  42   20   22 1
  43   22   23 1
  44   23   24 1
  45   23   45 1
  46   23   46 1
  47   24   47 1
  48   24   48 1
  49   24   49 1
