@<TRIPOS>MOLECULE
ZINC000101102775
  55   59    0    0    0
SMALL
USER_CHARGES
NO_NAME
@<TRIPOS>ATOM
    1 O1       -0.0173     1.4248     0.0099 O.3    1 <0>      -0.5400
    2 C2        0.0021    -0.0041     0.0020 C.3    1 <0>       0.0600
    3 H3       -1.0205    -0.3814     0.0098 H      1 <0>       0.1300
    4 C4        0.7182    -0.4975    -1.2568 C.3    1 <0>      -0.0400
    5 N5        0.0077    -0.0109    -2.4469 N.4    1 <0>      -0.5000
    6 H6       -0.9389    -0.3601    -2.4397 H      1 <0>       0.4300
    7 H7       -0.0060     0.9980    -2.4413 H      1 <0>       0.4300
    8 C8        0.6953    -0.4846    -3.6555 C.3    1 <0>      -0.0100
    9 C9       -0.0447     0.0222    -4.8950 C.3    1 <0>      -0.0600
   10 C10       0.6607    -0.4638    -6.1349 C.2    1 <0>      -0.2100
   11 C11       1.5835     0.2062    -6.8430 C.2    1 <0>       0.0900
   12 N12       1.9989    -0.5520    -7.9036 N.pl3  1 <0>      -0.5900
   13 C13       1.3367    -1.7592    -7.9039 C.ar   1 <0>       0.0900
   14 C14       1.3769    -2.8733    -8.7355 C.ar   1 <0>      -0.1200
   15 C15       0.5703    -3.9576    -8.4663 C.ar   1 <0>      -0.0900
   16 C16      -0.2835    -3.9504    -7.3722 C.ar   1 <0>      -0.1300
   17 C17      -0.3390    -2.8663    -6.5420 C.ar   1 <0>      -0.0800
   18 C18       0.4740    -1.7595    -6.7923 C.ar   1 <0>      -0.1000
   19 C19       0.7421    -0.5109     1.2415 C.3    1 <0>       0.0900
   20 N20      -0.0083    -0.1401     2.4439 N.pl3  1 <0>      -0.5000
   21 C21       0.1568     1.0402     3.1464 C.ar   1 <0>       0.1500
   22 C22      -0.7320     1.0371     4.2315 C.ar   1 <0>      -0.1000
   23 C23      -0.7687     2.1203     5.1065 C.ar   1 <0>      -0.0600
   24 C24       0.0706     3.1940     4.9023 C.ar   1 <0>      -0.1400
   25 C25       0.9495     3.1992     3.8299 C.ar   1 <0>      -0.0800
   26 C26       0.9968     2.1337     2.9571 C.ar   1 <0>      -0.1400
   27 C27      -1.4725    -0.2361     4.1620 C.ar   1 <0>      -0.1000
   28 C28      -0.9876    -0.9175     3.0360 C.ar   1 <0>       0.1300
   29 C29      -1.5119    -2.1668     2.7178 C.ar   1 <0>      -0.1500
   30 C30      -2.4969    -2.7225     3.5053 C.ar   1 <0>      -0.0800
   31 C31      -2.9753    -2.0472     4.6177 C.ar   1 <0>      -0.1400
   32 C32      -2.4712    -0.8076     4.9470 C.ar   1 <0>      -0.0600
   33 H33       0.8606     1.8301     0.0037 H      1 <0>       0.3900
   34 H34       1.7408    -0.1202    -1.2645 H      1 <0>       0.1400
   35 H35       0.7330    -1.5874    -1.2628 H      1 <0>       0.1400
   36 H36       1.7179    -0.1073    -3.6632 H      1 <0>       0.1300
   37 H37       0.7101    -1.5745    -3.6615 H      1 <0>       0.1300
   38 H38      -1.0673    -0.3551    -4.8873 H      1 <0>       0.0900
   39 H39      -0.0595     1.1121    -4.8890 H      1 <0>       0.0900
   40 H40       1.9444     1.1972    -6.6103 H      1 <0>       0.1700
   41 H41       2.6613    -0.2796    -8.5578 H      1 <0>       0.4200
   42 H42       2.0377    -2.8884    -9.5896 H      1 <0>       0.1300
   43 H43       0.6027    -4.8216    -9.1135 H      1 <0>       0.1300
   44 H44      -0.9094    -4.8083    -7.1756 H      1 <0>       0.1300
   45 H45      -1.0059    -2.8678    -5.6925 H      1 <0>       0.1200
   46 H46       0.8346    -1.5958     1.1912 H      1 <0>       0.1100
   47 H47       1.7350    -0.0630     1.2804 H      1 <0>       0.1000
   48 H48      -1.4530     2.1188     5.9421 H      1 <0>       0.1300
   49 H49       0.0434     4.0347     5.5797 H      1 <0>       0.1300
   50 H50       1.6030     4.0454     3.6774 H      1 <0>       0.1300
   51 H51       1.6851     2.1478     2.1250 H      1 <0>       0.1100
   52 H52      -1.1468    -2.7010     1.8531 H      1 <0>       0.1200
   53 H53      -2.9000    -3.6923     3.2534 H      1 <0>       0.1300
   54 H54      -3.7478    -2.4931     5.2268 H      1 <0>       0.1300
   55 H55      -2.8451    -0.2836     5.8142 H      1 <0>       0.1300
@<TRIPOS>BOND
   1    1    2 1
   2    1   33 1
   3    2    3 1
   4    2    4 1
   5    2   19 1
   6    4    5 1
   7    4   34 1
   8    4   35 1
   9    5    6 1
  10    5    7 1
  11    5    8 1
  12    8    9 1
  13    8   36 1
  14    8   37 1
  15    9   10 1
  16    9   38 1
  17    9   39 1
  18   10   18 1
  19   10   11 2
  20   11   12 1
  21   11   40 1
  22   12   13 1
  23   12   41 1
  24   13   18 ar
  25   13   14 ar
  26   14   15 ar
  27   14   42 1
  28   15   16 ar
  29   15   43 1
  30   16   17 ar
  31   16   44 1
  32   17   18 ar
  33   17   45 1
  34   19   20 1
  35   19   46 1
  36   19   47 1
  37   20   28 1
  38   20   21 1
  39   21   26 ar
  40   21   22 ar
  41   22   23 ar
  42   22   27 1
  43   23   24 ar
  44   23   48 1
  45   24   25 ar
  46   24   49 1
  47   25   26 ar
  48   25   50 1
  49   26   51 1
  50   27   32 ar
  51   27   28 ar
  52   28   29 ar
  53   29   30 ar
  54   29   52 1
  55   30   31 ar
  56   30   53 1
  57   31   32 ar
  58   31   54 1
  59   32   55 1
