@<TRIPOS>MOLECULE
ZINC000001803337
42    45    1     0     0
SMALL
USER_CHARGES
@<TRIPOS>ATOM
1      O1     -0.3149    1.7512    0.2432 O.3      1 ZINC000001803337   -0.5700
2      C2     -0.1430    0.3341    0.1777 C.3      1 ZINC000001803337    0.0600
3      C3     -1.5132   -0.3434    0.1110 C.3      1 ZINC000001803337    0.1200
4      N4     -2.1794    0.0245   -1.1408 N.pl3    1 ZINC000001803337   -0.6900
5      C5     -3.4391   -0.4708   -1.4252 C.ar     1 ZINC000001803337    0.5000
6      C6     -4.0901   -0.1353   -2.6196 C.ar     1 ZINC000001803337   -0.2800
7      C7     -5.3689   -0.6618   -2.8673 C.ar     1 ZINC000001803337    0.3300
8      N8     -5.9112   -1.4619   -1.9528 N.ar     1 ZINC000001803337   -0.5500
9      C9     -5.2651   -1.7528   -0.8434 C.ar     1 ZINC000001803337    0.3800
10     N10    -4.0615   -1.2826   -0.5739 N.ar     1 ZINC000001803337   -0.5900
11     O11    -5.7778   -0.1995   -4.0613 O.3      1 ZINC000001803337   -0.1700
12     C12    -4.8475    0.6012   -4.6193 C.2      1 ZINC000001803337    0.0800
13     C13    -4.9768    1.2742   -5.9257 C.ar     1 ZINC000001803337   -0.0300
14     C14    -3.9304    1.2196   -6.8500 C.ar     1 ZINC000001803337   -0.0800
15     C15    -4.0585    1.8507   -8.0696 C.ar     1 ZINC000001803337   -0.1200
16     C16    -5.2199    2.5368   -8.3788 C.ar     1 ZINC000001803337   -0.1000
17     C17    -6.2602    2.5954   -7.4681 C.ar     1 ZINC000001803337   -0.1200
18     C18    -6.1485    1.9642   -6.2469 C.ar     1 ZINC000001803337   -0.0900
19     C19    -3.7656    0.6943   -3.7869 C.2      1 ZINC000001803337   -0.0800
20     C20    -2.5258    1.4701   -4.0156 C.ar     1 ZINC000001803337   -0.0200
21     C21    -1.3136    0.8096   -4.2183 C.ar     1 ZINC000001803337   -0.1100
22     C22    -0.1616    1.5384   -4.4313 C.ar     1 ZINC000001803337   -0.1200
23     C23    -0.2067    2.9211   -4.4438 C.ar     1 ZINC000001803337   -0.1100
24     C24    -1.4055    3.5819   -4.2430 C.ar     1 ZINC000001803337   -0.1100
25     C25    -2.5655    2.8646   -4.0351 C.ar     1 ZINC000001803337   -0.0900
26     H26     0.5145    2.2464    0.2877 H        1 ZINC000001803337    0.3800
27     H27     0.4323    0.0787   -0.7122 H        1 ZINC000001803337    0.0500
28     H28     0.3891   -0.0087    1.0651 H        1 ZINC000001803337    0.0700
29     H29    -1.3859   -1.4252    0.1506 H        1 ZINC000001803337    0.0900
30     H30    -2.1209   -0.0179    0.9553 H        1 ZINC000001803337    0.0800
31     H31    -1.7371    0.6154   -1.7702 H        1 ZINC000001803337    0.4200
32     H32    -5.7384   -2.4056   -0.1249 H        1 ZINC000001803337    0.2100
33     H33    -3.0233    0.6848   -6.6099 H        1 ZINC000001803337    0.1300
34     H34    -3.2504    1.8097   -8.7849 H        1 ZINC000001803337    0.1300
35     H35    -5.3147    3.0291   -9.3354 H        1 ZINC000001803337    0.1300
36     H36    -7.1634    3.1333   -7.7160 H        1 ZINC000001803337    0.1300
37     H37    -6.9612    2.0108   -5.5372 H        1 ZINC000001803337    0.1300
38     H38    -1.2771   -0.2697   -4.2080 H        1 ZINC000001803337    0.1200
39     H39     0.7773    1.0284   -4.5883 H        1 ZINC000001803337    0.1300
40     H40     0.6979    3.4871   -4.6107 H        1 ZINC000001803337    0.1200
41     H41    -1.4340    4.6615   -4.2532 H        1 ZINC000001803337    0.1300
42     H42    -3.5008    3.3815   -3.8784 H        1 ZINC000001803337    0.1200
@<TRIPOS>BOND
1     1     2     1
2     1     26    1
3     2     3     1
4     2     27    1
5     2     28    1
6     3     4     1
7     3     29    1
8     3     30    1
9     4     5     1
10    4     31    1
11    5     10    ar
12    5     6     ar
13    6     19    1
14    6     7     ar
15    7     8     ar
16    7     11    1
17    8     9     ar
18    9     10    ar
19    9     32    1
20    11    12    1
21    12    13    1
22    12    19    2
23    13    18    ar
24    13    14    ar
25    14    15    ar
26    14    33    1
27    15    16    ar
28    15    34    1
29    16    17    ar
30    16    35    1
31    17    18    ar
32    17    36    1
33    18    37    1
34    19    20    1
35    20    25    ar
36    20    21    ar
37    21    22    ar
38    21    38    1
39    22    23    ar
40    22    39    1
41    23    24    ar
42    23    40    1
43    24    25    ar
44    24    41    1
45    25    42    1
@<TRIPOS>SUBSTRUCTURE
1   ZINC000001803337 1     RESIDUE    1   A     ZIN   1
