@<TRIPOS>MOLECULE
ZINC000002140391
50    52    1     0     0
SMALL
USER_CHARGES
@<TRIPOS>ATOM
1      C1      0.8531    1.4810   -0.0946 C.3      1 ZINC000002140391   -0.1200
2      C2      0.6442   -0.0113   -0.0698 C.ar     1 ZINC000002140391    0.0100
3      C3      0.4304   -0.6922   -1.2566 C.ar     1 ZINC000002140391   -0.2400
4      C4      0.2355   -2.0621   -1.2500 C.ar     1 ZINC000002140391    0.2000
5      O5      0.0265   -2.7292   -2.4131 O.3      1 ZINC000002140391   -0.2700
6      C6     -0.0989   -1.9418   -3.5990 C.3      1 ZINC000002140391    0.0700
7      H7     -0.6074   -1.0071   -3.3625 H        1 ZINC000002140391    0.1100
8      C8      1.2922   -1.6380   -4.1589 C.3      1 ZINC000002140391   -0.1800
9      C9     -0.8982   -2.7028   -4.6251 C.2      1 ZINC000002140391    0.5200
10     O10    -1.3191   -3.8105   -4.3664 O.2      1 ZINC000002140391   -0.5200
11     N11    -1.1454   -2.1526   -5.8304 N.am     1 ZINC000002140391   -0.7100
12     C12    -1.9224   -2.8924   -6.8279 C.3      1 ZINC000002140391    0.1000
13     C13    -2.0546   -2.0621   -8.0785 C.2      1 ZINC000002140391    0.5000
14     O14    -1.5495   -0.9607   -8.1314 O.2      1 ZINC000002140391   -0.5600
15     N15    -2.7342   -2.5434   -9.1383 N.am     1 ZINC000002140391   -0.6900
16     C16    -2.8627   -1.7361  -10.3540 C.3      1 ZINC000002140391    0.0500
17     C17    -3.6620   -2.4972  -11.3802 C.2      1 ZINC000002140391    0.4900
18     O18    -4.0851   -3.6107  -11.1200 O.co2    1 ZINC000002140391   -0.6900
19     O19    -3.8856   -1.9994  -12.4705 O.co2    1 ZINC000002140391   -0.6900
20     C20     0.2564   -2.7561   -0.0302 C.ar     1 ZINC000002140391   -0.1700
21     C21     0.0507   -4.2048    0.0174 C.2      1 ZINC000002140391    0.0400
22     C22     0.0833   -4.8218    1.2253 C.2      1 ZINC000002140391   -0.2600
23     C23    -0.1491   -6.3076    1.0542 C.3      1 ZINC000002140391   -0.0500
24     C24    -0.7562   -6.4603   -0.3573 C.3      1 ZINC000002140391   -0.1200
25     C25    -0.2066   -5.2110   -1.0802 C.3      1 ZINC000002140391   -0.0900
26     C26     0.3115   -4.0565    2.3913 C.2      1 ZINC000002140391    0.5300
27     O27     0.3411   -4.6181    3.4716 O.2      1 ZINC000002140391   -0.4700
28     O28     0.4969   -2.7292    2.3413 O.3      1 ZINC000002140391   -0.2600
29     C29     0.4765   -2.0573    1.1702 C.ar     1 ZINC000002140391    0.1900
30     C30     0.6737   -0.6845    1.1354 C.ar     1 ZINC000002140391   -0.1700
31     H31     1.9156    1.6973   -0.2055 H        1 ZINC000002140391    0.0800
32     H32     0.3053    1.9107   -0.9333 H        1 ZINC000002140391    0.0800
33     H33     0.4893    1.9143    0.8371 H        1 ZINC000002140391    0.0800
34     H34     0.4155   -0.1515   -2.1915 H        1 ZINC000002140391    0.1400
35     H35     1.8703   -1.0875   -3.4167 H        1 ZINC000002140391    0.0800
36     H36     1.8007   -2.5727   -4.3954 H        1 ZINC000002140391    0.0800
37     H37     1.1966   -1.0374   -5.0635 H        1 ZINC000002140391    0.0900
38     H38    -0.8088   -1.2667   -6.0373 H        1 ZINC000002140391    0.4100
39     H39    -1.4139   -3.8271   -7.0644 H        1 ZINC000002140391    0.1000
40     H40    -2.9134   -3.1089   -6.4290 H        1 ZINC000002140391    0.1000
41     H41    -3.1381   -3.4242   -9.0960 H        1 ZINC000002140391    0.4100
42     H42    -3.3712   -0.8015  -10.1175 H        1 ZINC000002140391    0.0700
43     H43    -1.8716   -1.5197  -10.7529 H        1 ZINC000002140391    0.0700
44     H44     0.7949   -6.8484    1.1207 H        1 ZINC000002140391    0.0800
45     H45    -0.8479   -6.6705    1.8080 H        1 ZINC000002140391    0.0800
46     H46    -0.4035   -7.3738   -0.8360 H        1 ZINC000002140391    0.0900
47     H47    -1.8453   -6.4391   -0.3171 H        1 ZINC000002140391    0.0800
48     H48    -0.9449   -4.8246   -1.7828 H        1 ZINC000002140391    0.1000
49     H49     0.7215   -5.4513   -1.5989 H        1 ZINC000002140391    0.1000
50     H50     0.8457   -0.1410    2.0526 H        1 ZINC000002140391    0.1500
@<TRIPOS>BOND
1     1     2     1
2     1     31    1
3     1     32    1
4     1     33    1
5     2     30    ar
6     2     3     ar
7     3     4     ar
8     3     34    1
9     4     5     1
10    4     20    ar
11    5     6     1
12    6     7     1
13    6     8     1
14    6     9     1
15    8     35    1
16    8     36    1
17    8     37    1
18    9     10    2
19    9     11    am
20    11    12    1
21    11    38    1
22    12    13    1
23    12    39    1
24    12    40    1
25    13    14    2
26    13    15    am
27    15    16    1
28    15    41    1
29    16    17    1
30    16    42    1
31    16    43    1
32    17    18    ar
33    17    19    ar
34    20    29    ar
35    20    21    1
36    21    25    1
37    21    22    2
38    22    23    1
39    22    26    1
40    23    24    1
41    23    44    1
42    23    45    1
43    24    25    1
44    24    46    1
45    24    47    1
46    25    48    1
47    25    49    1
48    26    27    2
49    26    28    1
50    28    29    1
51    29    30    ar
52    30    50    1
@<TRIPOS>SUBSTRUCTURE
1   ZINC000002140391 1     RESIDUE    1   A     ZIN   1
