@<TRIPOS>MOLECULE
ZINC000002037016
63    65    1     0     0
SMALL
USER_CHARGES
@<TRIPOS>ATOM
1      C1      0.3602    0.5644   -0.7565 C.3      1 ZINC000002037016    0.0200
2      O2      0.3666   -0.8512   -0.5608 O.3      1 ZINC000002037016   -0.3000
3      C3      0.9139   -1.3120    0.5957 C.ar     1 ZINC000002037016    0.1300
4      C4      1.4331   -0.4120    1.5331 C.ar     1 ZINC000002037016   -0.1900
5      C5      1.9747   -0.8944    2.6572 C.ar     1 ZINC000002037016   -0.0200
6      C6      2.0798   -2.2965    2.9273 C.ar     1 ZINC000002037016   -0.0900
7      C7      1.5374   -3.1779    2.0138 C.ar     1 ZINC000002037016    0.1500
8      O8      1.5676   -4.5170    2.2483 O.3      1 ZINC000002037016   -0.3100
9      C9      2.6846   -5.2414    1.7291 C.3      1 ZINC000002037016    0.0400
10     C10     0.9536   -2.6790    0.8518 C.ar     1 ZINC000002037016    0.0300
11     O11     0.4217   -3.5445   -0.0539 O.3      1 ZINC000002037016   -0.3200
12     C12    -0.9614   -3.8711    0.0955 C.3      1 ZINC000002037016    0.0400
13     C13     2.8420   -2.6347    4.1440 C.ar     1 ZINC000002037016   -0.0900
14     C14     4.1862   -2.1454    4.1612 C.ar     1 ZINC000002037016   -0.0100
15     C15     5.0005   -2.2926    5.2119 C.ar     1 ZINC000002037016   -0.1700
16     C16     4.5340   -2.9962    6.3286 C.ar     1 ZINC000002037016    0.1300
17     O17     5.3376   -3.1640    7.4127 O.3      1 ZINC000002037016   -0.3000
18     C18     6.6468   -2.5954    7.3440 C.3      1 ZINC000002037016    0.0200
19     C19     3.2464   -3.5232    6.3271 C.ar     1 ZINC000002037016    0.0300
20     O20     2.8108   -4.2249    7.4089 O.3      1 ZINC000002037016   -0.3200
21     C21     3.0632   -5.6314    7.4145 C.3      1 ZINC000002037016    0.0400
22     C22     2.3947   -3.3458    5.2394 C.ar     1 ZINC000002037016    0.1500
23     O23     1.1387   -3.8664    5.2563 O.3      1 ZINC000002037016   -0.3200
24     C24     0.1035   -3.0457    5.8011 C.3      1 ZINC000002037016    0.0400
25     C25     4.4438   -1.5636    2.7687 C.3      1 ZINC000002037016   -0.1500
26     C26     4.8853   -0.0755    2.8531 C.3      1 ZINC000002037016    0.1400
27     C27     5.1819    0.4517    1.4477 C.3      1 ZINC000002037016   -0.1800
28     O28     6.0587    0.0307    3.6618 O.3      1 ZINC000002037016   -0.5500
29     C29     3.7091    0.7723    3.5025 C.3      1 ZINC000002037016   -0.0700
30     H30     3.3554    1.5131    2.7854 H        1 ZINC000002037016    0.0800
31     C31     4.2227    1.4808    4.7576 C.3      1 ZINC000002037016   -0.1300
32     C32     2.5426   -0.1784    3.8835 C.3      1 ZINC000002037016   -0.1200
33     H33     1.3845    0.9369   -0.7484 H        1 ZINC000002037016    0.0600
34     H34    -0.1032    0.7965   -1.7154 H        1 ZINC000002037016    0.1000
35     H35    -0.2055    1.0394    0.0450 H        1 ZINC000002037016    0.0600
36     H36     1.3976    0.6522    1.3523 H        1 ZINC000002037016    0.1400
37     H37     2.7633   -5.0675    0.6559 H        1 ZINC000002037016    0.0500
38     H38     3.5971   -4.9030    2.2199 H        1 ZINC000002037016    0.0400
39     H39     2.5453   -6.3063    1.9153 H        1 ZINC000002037016    0.0900
40     H40    -1.1098   -4.4023    1.0357 H        1 ZINC000002037016    0.0500
41     H41    -1.5527   -2.9554    0.0984 H        1 ZINC000002037016    0.0400
42     H42    -1.2768   -4.5046   -0.7335 H        1 ZINC000002037016    0.0900
43     H43     5.9974   -1.8775    5.1990 H        1 ZINC000002037016    0.1500
44     H44     7.1897   -3.0334    6.5065 H        1 ZINC000002037016    0.0600
45     H45     6.5678   -1.5176    7.2020 H        1 ZINC000002037016    0.0600
46     H46     7.1815   -2.8014    8.2713 H        1 ZINC000002037016    0.1000
47     H47     2.6514   -6.0780    6.5095 H        1 ZINC000002037016    0.0500
48     H48     4.1384   -5.8074    7.4497 H        1 ZINC000002037016    0.0400
49     H49     2.5925   -6.0815    8.2885 H        1 ZINC000002037016    0.0900
50     H50     0.3781   -2.7361    6.8095 H        1 ZINC000002037016    0.0500
51     H51    -0.0292   -2.1641    5.1739 H        1 ZINC000002037016    0.0400
52     H52    -0.8280   -3.6107    5.8355 H        1 ZINC000002037016    0.0900
53     H53     5.2279   -2.1416    2.2796 H        1 ZINC000002037016    0.0700
54     H54     3.5300   -1.6321    2.1784 H        1 ZINC000002037016    0.1200
55     H55     4.2846    0.3741    0.8337 H        1 ZINC000002037016    0.0700
56     H56     5.4913    1.4950    1.5089 H        1 ZINC000002037016    0.0700
57     H57     5.9811   -0.1386    0.9994 H        1 ZINC000002037016    0.0600
58     H58     6.8141   -0.4715    3.3268 H        1 ZINC000002037016    0.3700
59     H59     5.0439    2.1454    4.4893 H        1 ZINC000002037016    0.0600
60     H60     3.4153    2.0623    5.2027 H        1 ZINC000002037016    0.0500
61     H61     4.5747    0.7395    5.4749 H        1 ZINC000002037016    0.0600
62     H62     1.7499    0.4024    4.3551 H        1 ZINC000002037016    0.0800
63     H63     2.9069   -0.9219    4.5925 H        1 ZINC000002037016    0.1200
@<TRIPOS>BOND
1     1     2     1
2     1     33    1
3     1     34    1
4     1     35    1
5     2     3     1
6     3     10    ar
7     3     4     ar
8     4     5     ar
9     4     36    1
10    5     32    1
11    5     6     ar
12    6     7     ar
13    6     13    1
14    7     8     1
15    7     10    ar
16    8     9     1
17    9     37    1
18    9     38    1
19    9     39    1
20    10    11    1
21    11    12    1
22    12    40    1
23    12    41    1
24    12    42    1
25    13    22    ar
26    13    14    ar
27    14    15    ar
28    14    25    1
29    15    16    ar
30    15    43    1
31    16    17    1
32    16    19    ar
33    17    18    1
34    18    44    1
35    18    45    1
36    18    46    1
37    19    20    1
38    19    22    ar
39    20    21    1
40    21    47    1
41    21    48    1
42    21    49    1
43    22    23    1
44    23    24    1
45    24    50    1
46    24    51    1
47    24    52    1
48    25    26    1
49    25    53    1
50    25    54    1
51    26    27    1
52    26    28    1
53    26    29    1
54    27    55    1
55    27    56    1
56    27    57    1
57    28    58    1
58    29    30    1
59    29    31    1
60    29    32    1
61    31    59    1
62    31    60    1
63    31    61    1
64    32    62    1
65    32    63    1
@<TRIPOS>SUBSTRUCTURE
1   ZINC000002037016 1     RESIDUE    1   A     ZIN   1
