@<TRIPOS>MOLECULE
ZINC000008831195
55    58    1     0     0
SMALL
USER_CHARGES
@<TRIPOS>ATOM
1      C1     -0.0176    1.5262   -0.0636 C.3      1 ZINC000008831195   -0.1500
2      C2      0.0029   -0.0037   -0.0619 C.3      1 ZINC000008831195    0.0500
3      O3     -1.3378   -0.4981   -0.0526 O.3      1 ZINC000008831195   -0.3100
4      C4     -1.4975   -1.8462   -0.0499 C.ar     1 ZINC000008831195    0.1700
5      C5     -0.3831   -2.6762   -0.0505 C.ar     1 ZINC000008831195   -0.2200
6      C6     -0.5413   -4.0447   -0.0478 C.ar     1 ZINC000008831195   -0.0200
7      C7     -1.8235   -4.5975   -0.0445 C.ar     1 ZINC000008831195   -0.1100
8      C8     -1.9975   -6.0664   -0.0412 C.2      1 ZINC000008831195    0.4500
9      N9     -3.2223   -6.5782   -0.0436 N.2      1 ZINC000008831195   -0.5200
10     C10    -3.3947   -7.9031   -0.0410 C.2      1 ZINC000008831195    0.3600
11     C11    -4.5224   -8.7143   -0.0429 C.2      1 ZINC000008831195   -0.3300
12     C12    -4.0913  -10.0416   -0.0388 C.2      1 ZINC000008831195    0.5500
13     O13    -4.8126  -11.0258   -0.0391 O.2      1 ZINC000008831195   -0.5200
14     N14    -2.7440  -10.0526   -0.0346 N.am     1 ZINC000008831195   -0.5100
15     N15    -2.2901   -8.7301   -0.0359 N.pl3    1 ZINC000008831195   -0.3300
16     C16    -1.0437   -8.1729   -0.0338 C.2      1 ZINC000008831195    0.3900
17     S17     0.3881   -9.1999   -0.0272 S.3      1 ZINC000008831195    0.1200
18     C18     1.6824   -7.9346   -0.0268 C.3      1 ZINC000008831195   -0.1500
19     C19     3.0348   -8.5995   -0.0214 C.2      1 ZINC000008831195    0.5300
20     O20     3.1156   -9.8097   -0.0181 O.2      1 ZINC000008831195   -0.5000
21     N21     4.1545   -7.8494   -0.0202 N.am     1 ZINC000008831195   -0.6600
22     C22     5.4077   -8.4632    0.0827 C.ar     1 ZINC000008831195    0.1300
23     C23     6.4311   -7.8419    0.7860 C.ar     1 ZINC000008831195   -0.1400
24     C24     7.6671   -8.4504    0.8856 C.ar     1 ZINC000008831195   -0.1000
25     C25     7.8860   -9.6766    0.2856 C.ar     1 ZINC000008831195   -0.0900
26     C26     9.2359  -10.3374    0.3959 C.3      1 ZINC000008831195   -0.1200
27     C27     6.8686  -10.2983   -0.4153 C.ar     1 ZINC000008831195   -0.0700
28     C28     7.1113  -11.6353   -1.0669 C.3      1 ZINC000008831195   -0.1200
29     C29     5.6290   -9.6978   -0.5138 C.ar     1 ZINC000008831195   -0.1100
30     N30    -0.9194   -6.8552   -0.0413 N.2      1 ZINC000008831195   -0.5600
31     C31    -2.9410   -3.7604   -0.0440 C.ar     1 ZINC000008831195   -0.0100
32     C32    -2.7750   -2.3928   -0.0409 C.ar     1 ZINC000008831195   -0.1600
33     H33     1.0050    1.9033   -0.0707 H        1 ZINC000008831195    0.0800
34     H34    -0.5421    1.8815   -0.9506 H        1 ZINC000008831195    0.0700
35     H35    -0.5305    1.8836    0.8294 H        1 ZINC000008831195    0.0700
36     H36     0.5158   -0.3611   -0.9548 H        1 ZINC000008831195    0.0700
37     H37     0.5274   -0.3590    0.8251 H        1 ZINC000008831195    0.0700
38     H38     0.6084   -2.2480   -0.0534 H        1 ZINC000008831195    0.1400
39     H39     0.3253   -4.6892   -0.0486 H        1 ZINC000008831195    0.1400
40     H40    -5.5488   -8.3782   -0.0469 H        1 ZINC000008831195    0.1800
41     H41    -2.1836  -10.8443   -0.0308 H        1 ZINC000008831195    0.4400
42     H42     1.5855   -7.3155   -0.9186 H        1 ZINC000008831195    0.1400
43     H43     1.5805   -7.3110    0.8613 H        1 ZINC000008831195    0.1400
44     H44     4.0916   -6.8840   -0.0906 H        1 ZINC000008831195    0.4200
45     H45     6.2609   -6.8837    1.2543 H        1 ZINC000008831195    0.1300
46     H46     8.4635   -7.9677    1.4326 H        1 ZINC000008831195    0.1300
47     H47     9.2587  -10.9715    1.2822 H        1 ZINC000008831195    0.0700
48     H48     9.4163  -10.9455   -0.4906 H        1 ZINC000008831195    0.0700
49     H49    10.0091   -9.5733    0.4758 H        1 ZINC000008831195    0.0700
50     H50     6.8670  -12.4317   -0.3640 H        1 ZINC000008831195    0.0700
51     H51     6.4828  -11.7271   -1.9528 H        1 ZINC000008831195    0.0700
52     H52     8.1595  -11.7140   -1.3553 H        1 ZINC000008831195    0.0700
53     H53     4.8349  -10.1838   -1.0612 H        1 ZINC000008831195    0.1400
54     H54    -3.9342   -4.1845   -0.0414 H        1 ZINC000008831195    0.1500
55     H55    -3.6389   -1.7447   -0.0405 H        1 ZINC000008831195    0.1400
@<TRIPOS>BOND
1     1     2     1
2     1     33    1
3     1     34    1
4     1     35    1
5     2     3     1
6     2     36    1
7     2     37    1
8     3     4     1
9     4     32    ar
10    4     5     ar
11    5     6     ar
12    5     38    1
13    6     7     ar
14    6     39    1
15    7     8     1
16    7     31    ar
17    8     30    1
18    8     9     2
19    9     10    1
20    10    15    1
21    10    11    2
22    11    12    1
23    11    40    1
24    12    13    2
25    12    14    am
26    14    15    1
27    14    41    1
28    15    16    1
29    16    17    1
30    16    30    2
31    17    18    1
32    18    19    1
33    18    42    1
34    18    43    1
35    19    20    2
36    19    21    am
37    21    22    1
38    21    44    1
39    22    29    ar
40    22    23    ar
41    23    24    ar
42    23    45    1
43    24    25    ar
44    24    46    1
45    25    26    1
46    25    27    ar
47    26    47    1
48    26    48    1
49    26    49    1
50    27    28    1
51    27    29    ar
52    28    50    1
53    28    51    1
54    28    52    1
55    29    53    1
56    31    32    ar
57    31    54    1
58    32    55    1
@<TRIPOS>SUBSTRUCTURE
1   ZINC000008831195 1     RESIDUE    1   A     ZIN   1
