@<TRIPOS>MOLECULE
ZINC000005075109
50    52    1     0     0
SMALL
USER_CHARGES
@<TRIPOS>ATOM
1      C1     -0.0187    1.5258    0.0104 C.3      1 ZINC000005075109   -0.1500
2      C2      0.0021   -0.0041    0.0020 C.3      1 ZINC000005075109   -0.1200
3      C3     -1.4333   -0.5336    0.0129 C.3      1 ZINC000005075109   -0.0700
4      C4     -1.4129   -2.0405    0.0046 C.2      1 ZINC000005075109    0.2000
5      C5     -1.5012   -2.7295    1.1798 C.2      1 ZINC000005075109   -0.2900
6      C6     -1.4805   -4.1348    1.1472 C.2      1 ZINC000005075109    0.5300
7      O7     -1.5579   -4.7818    2.1788 O.2      1 ZINC000005075109   -0.5300
8      N8     -1.3739   -4.7549   -0.0474 N.am     1 ZINC000005075109   -0.6200
9      C9     -1.2891   -4.0152   -1.1878 C.2      1 ZINC000005075109    0.3500
10     S10    -1.1503   -4.8330   -2.7423 S.3      1 ZINC000005075109    0.0900
11     C11    -1.0774   -3.4001   -3.8458 C.3      1 ZINC000005075109   -0.1400
12     C12    -0.9536   -3.8704   -5.2722 C.2      1 ZINC000005075109    0.5300
13     O13    -0.9181   -5.0574   -5.5184 O.2      1 ZINC000005075109   -0.5200
14     N14    -0.8823   -2.9719   -6.2742 N.am     1 ZINC000005075109   -0.6100
15     C15    -0.9175   -1.5278   -5.9972 C.3      1 ZINC000005075109    0.1100
16     C16     0.2686   -0.8669   -6.7075 C.3      1 ZINC000005075109    0.0300
17     N17     0.2449   -1.2269   -8.1315 N.3      1 ZINC000005075109   -0.4900
18     C18     1.2124   -0.5148   -8.8440 C.ar     1 ZINC000005075109    0.1100
19     C19     2.0389    0.3868   -8.1854 C.ar     1 ZINC000005075109   -0.1700
20     C20     2.9948    1.0889   -8.8928 C.ar     1 ZINC000005075109   -0.0900
21     C21     3.1295    0.8956  -10.2555 C.ar     1 ZINC000005075109   -0.1400
22     C22     2.3084   -0.0011  -10.9143 C.ar     1 ZINC000005075109   -0.0900
23     C23     1.3542   -0.7107  -10.2119 C.ar     1 ZINC000005075109   -0.1400
24     C24     0.4129   -2.6743   -8.3181 C.3      1 ZINC000005075109    0.0400
25     C25    -0.7611   -3.4093   -7.6732 C.3      1 ZINC000005075109    0.1200
26     N26    -1.3144   -2.6969   -1.1485 N.2      1 ZINC000005075109   -0.5400
27     H27     1.0039    1.9031    0.0027 H        1 ZINC000005075109    0.0600
28     H28    -0.5459    1.8868   -0.8726 H        1 ZINC000005075109    0.0600
29     H29    -0.5289    1.8773    0.9072 H        1 ZINC000005075109    0.0600
30     H30     0.5123   -0.3556   -0.8948 H        1 ZINC000005075109    0.0700
31     H31     0.5293   -0.3651    0.8851 H        1 ZINC000005075109    0.0600
32     H32    -1.9435   -0.1821    0.9097 H        1 ZINC000005075109    0.0900
33     H33    -1.9605   -0.1726   -0.8702 H        1 ZINC000005075109    0.0900
34     H34    -1.5851   -2.2035    2.1193 H        1 ZINC000005075109    0.1600
35     H35    -1.3574   -5.7237   -0.0933 H        1 ZINC000005075109    0.4200
36     H36    -1.9872   -2.8100   -3.7355 H        1 ZINC000005075109    0.1300
37     H37    -0.2134   -2.7873   -3.5890 H        1 ZINC000005075109    0.1300
38     H38    -1.8501   -1.1058   -6.3717 H        1 ZINC000005075109    0.0900
39     H39    -0.8412   -1.3591   -4.9230 H        1 ZINC000005075109    0.1000
40     H40     0.1966    0.2159   -6.6049 H        1 ZINC000005075109    0.1000
41     H41     1.1999   -1.2139   -6.2601 H        1 ZINC000005075109    0.0500
42     H42     1.9337    0.5387   -7.1213 H        1 ZINC000005075109    0.1300
43     H43     3.6377    1.7900   -8.3813 H        1 ZINC000005075109    0.1200
44     H44     3.8774    1.4465  -10.8065 H        1 ZINC000005075109    0.1200
45     H45     2.4162   -0.1497  -11.9786 H        1 ZINC000005075109    0.1300
46     H46     0.7135   -1.4111  -10.7270 H        1 ZINC000005075109    0.1300
47     H47     0.4455   -2.9024   -9.3834 H        1 ZINC000005075109    0.1000
48     H48     1.3422   -2.9962   -7.8482 H        1 ZINC000005075109    0.0500
49     H49    -0.5840   -4.4842   -7.7084 H        1 ZINC000005075109    0.1000
50     H50    -1.6809   -3.1693   -8.2066 H        1 ZINC000005075109    0.0800
@<TRIPOS>BOND
1     1     2     1
2     1     27    1
3     1     28    1
4     1     29    1
5     2     3     1
6     2     30    1
7     2     31    1
8     3     4     1
9     3     32    1
10    3     33    1
11    4     26    1
12    4     5     2
13    5     6     1
14    5     34    1
15    6     7     2
16    6     8     am
17    8     9     1
18    8     35    1
19    9     10    1
20    9     26    2
21    10    11    1
22    11    12    1
23    11    36    1
24    11    37    1
25    12    13    2
26    12    14    am
27    14    25    1
28    14    15    1
29    15    16    1
30    15    38    1
31    15    39    1
32    16    17    1
33    16    40    1
34    16    41    1
35    17    18    1
36    17    24    1
37    18    23    ar
38    18    19    ar
39    19    20    ar
40    19    42    1
41    20    21    ar
42    20    43    1
43    21    22    ar
44    21    44    1
45    22    23    ar
46    22    45    1
47    23    46    1
48    24    25    1
49    24    47    1
50    24    48    1
51    25    49    1
52    25    50    1
@<TRIPOS>SUBSTRUCTURE
1   ZINC000005075109 1     RESIDUE    1   A     ZIN   1
