@<TRIPOS>MOLECULE
ZINC000000538071
58    62    1     0     0
SMALL
USER_CHARGES
@<TRIPOS>ATOM
1      C1     -0.0173    1.4248    0.0099 C.3      1 ZINC000000538071    0.0200
2      O2      0.0021   -0.0041    0.0020 O.3      1 ZINC000000538071   -0.3800
3      C3     -1.2953   -0.6030    0.0112 C.3      1 ZINC000000538071    0.1700
4      C4     -2.0650   -0.1587   -1.2368 C.3      1 ZINC000000538071   -0.1600
5      C5     -1.3385   -0.6667   -2.4849 C.3      1 ZINC000000538071   -0.1000
6      H6     -0.3481   -0.2149   -2.5393 H        1 ZINC000000538071    0.1200
7      C7     -2.1411   -0.2912   -3.7322 C.3      1 ZINC000000538071    0.0700
8      O8     -1.3950   -0.6682   -4.9195 O.3      1 ZINC000000538071   -0.3600
9      C9     -1.9667   -0.4043   -6.1104 C.2      1 ZINC000000538071    0.5200
10     O10    -3.0584    0.1263   -6.1558 O.2      1 ZINC000000538071   -0.4800
11     C11    -1.2658   -0.7601   -7.3611 C.ar     1 ZINC000000538071   -0.1800
12     C12    -0.0135   -1.3753   -7.3225 C.ar     1 ZINC000000538071    0.1700
13     N13     0.6117   -1.6927   -8.4372 N.ar     1 ZINC000000538071   -0.4800
14     C14     0.0894   -1.4471   -9.6235 C.ar     1 ZINC000000538071    0.1700
15     C15    -1.1485   -0.8397   -9.7475 C.ar     1 ZINC000000538071   -0.1600
16     Br16   -1.8776   -0.4968  -11.4583 Br       1 ZINC000000538071    0.0000
17     C17    -1.8492   -0.4910   -8.6057 C.ar     1 ZINC000000538071    0.0200
18     C18    -1.2025   -2.1889   -2.4016 C.3      1 ZINC000000538071   -0.0100
19     N19    -0.4282   -2.5461   -1.2074 N.4      1 ZINC000000538071   -0.3800
20     H20     0.4694   -2.0863   -1.2403 H        1 ZINC000000538071    0.4300
21     C21    -0.2296   -4.0012   -1.1722 C.3      1 ZINC000000538071   -0.0500
22     C22    -1.1476   -2.1250    0.0016 C.3      1 ZINC000000538071    0.0600
23     H23    -2.1476   -2.5577   -0.0278 H        1 ZINC000000538071    0.1400
24     C24    -0.4168   -2.6811    1.2328 C.3      1 ZINC000000538071   -0.0400
25     C25    -1.1361   -2.1877    2.4623 C.2      1 ZINC000000538071   -0.2000
26     C26    -1.2828   -2.6064    3.7098 C.2      1 ZINC000000538071    0.0900
27     N27    -2.0844   -1.7260    4.4210 N.pl3    1 ZINC000000538071   -0.4800
28     C28    -2.4518   -1.8818    5.8306 C.3      1 ZINC000000538071    0.0700
29     C29    -2.4812   -0.6956    3.6234 C.ar     1 ZINC000000538071    0.1100
30     C30    -3.2653    0.4501    3.7471 C.ar     1 ZINC000000538071   -0.0900
31     C31    -3.3945    1.2457    2.6166 C.ar     1 ZINC000000538071   -0.1000
32     C32    -2.7940    0.9677    1.3895 C.ar     1 ZINC000000538071   -0.1100
33     C33    -2.0427   -0.1435    1.2265 C.ar     1 ZINC000000538071   -0.0900
34     C34    -1.8993   -0.9428    2.3746 C.ar     1 ZINC000000538071   -0.1200
35     H35     1.0053    1.8021    0.0021 H        1 ZINC000000538071    0.1000
36     H36    -0.5445    1.7859   -0.8732 H        1 ZINC000000538071    0.0500
37     H37    -0.5275    1.7763    0.9067 H        1 ZINC000000538071    0.0600
38     H38    -3.0733   -0.5718   -1.2090 H        1 ZINC000000538071    0.1000
39     H39    -2.1174    0.9297   -1.2639 H        1 ZINC000000538071    0.1100
40     H40    -3.0963   -0.8161   -3.7214 H        1 ZINC000000538071    0.0900
41     H41    -2.3177    0.7844   -3.7404 H        1 ZINC000000538071    0.0900
42     H42     0.4469   -1.5926   -6.3701 H        1 ZINC000000538071    0.1800
43     H43     0.6367   -1.7242  -10.5124 H        1 ZINC000000538071    0.1800
44     H44    -2.8169   -0.0161   -8.6729 H        1 ZINC000000538071    0.1600
45     H45    -2.1931   -2.6394   -2.3405 H        1 ZINC000000538071    0.1300
46     H46    -0.6900   -2.5571   -3.2904 H        1 ZINC000000538071    0.1400
47     H47     0.3116   -4.3157   -2.0646 H        1 ZINC000000538071    0.1300
48     H48     0.3454   -4.2681   -0.2856 H        1 ZINC000000538071    0.1300
49     H49    -1.1986   -4.4994   -1.1404 H        1 ZINC000000538071    0.1200
50     H50    -0.4317   -3.7707    1.2093 H        1 ZINC000000538071    0.1000
51     H51     0.6137   -2.3260    1.2413 H        1 ZINC000000538071    0.1000
52     H52    -0.8416   -3.5049    4.1154 H        1 ZINC000000538071    0.1700
53     H53    -1.7100   -1.3857    6.4564 H        1 ZINC000000538071    0.0800
54     H54    -3.4305   -1.4338    6.0027 H        1 ZINC000000538071    0.0900
55     H55    -2.4883   -2.9419    6.0816 H        1 ZINC000000538071    0.0900
56     H56    -3.7490    0.7069    4.6779 H        1 ZINC000000538071    0.1400
57     H57    -3.9994    2.1372    2.6927 H        1 ZINC000000538071    0.1300
58     H58    -2.9416    1.6377    0.5554 H        1 ZINC000000538071    0.1200
@<TRIPOS>BOND
1     1     2     1
2     1     35    1
3     1     36    1
4     1     37    1
5     2     3     1
6     3     22    1
7     3     33    1
8     3     4     1
9     4     5     1
10    4     38    1
11    4     39    1
12    5     6     1
13    5     7     1
14    5     18    1
15    7     8     1
16    7     40    1
17    7     41    1
18    8     9     1
19    9     10    2
20    9     11    1
21    11    17    ar
22    11    12    ar
23    12    13    ar
24    12    42    1
25    13    14    ar
26    14    15    ar
27    14    43    1
28    15    16    1
29    15    17    ar
30    17    44    1
31    18    19    1
32    18    45    1
33    18    46    1
34    19    20    1
35    19    21    1
36    19    22    1
37    21    47    1
38    21    48    1
39    21    49    1
40    22    23    1
41    22    24    1
42    24    25    1
43    24    50    1
44    24    51    1
45    25    34    1
46    25    26    2
47    26    27    1
48    26    52    1
49    27    28    1
50    27    29    1
51    28    53    1
52    28    54    1
53    28    55    1
54    29    34    ar
55    29    30    ar
56    30    31    ar
57    30    56    1
58    31    32    ar
59    31    57    1
60    32    33    ar
61    32    58    1
62    33    34    ar
@<TRIPOS>SUBSTRUCTURE
1   ZINC000000538071 1     RESIDUE    1   A     ZIN   1
