@<TRIPOS>MOLECULE
ZINC000000007455
36    38    1     0     0
SMALL
USER_CHARGES
@<TRIPOS>ATOM
1      C1     -0.0225    1.8097    0.0120 C.3      1 ZINC000000007455   -0.6500
2      S2      0.0021   -0.0041    0.0020 S.o2     1 ZINC000000007455    2.5000
3      O3      0.8448   -0.4970    1.0346 O.2      1 ZINC000000007455   -0.9300
4      O4     -1.3093   -0.5195   -0.1821 O.2      1 ZINC000000007455   -0.9300
5      C5      0.8469   -0.4241   -1.4861 C.ar     1 ZINC000000007455   -0.6500
6      C6      0.1318   -0.5935   -2.6592 C.ar     1 ZINC000000007455   -0.0200
7      C7      0.7851   -0.9218   -3.8279 C.ar     1 ZINC000000007455   -0.1200
8      C8      2.1755   -1.0837   -3.8260 C.ar     1 ZINC000000007455    0.0100
9      C9      2.8799   -1.4330   -5.0668 C.2      1 ZINC000000007455   -0.0600
10     C10     3.7881   -0.6662   -5.7315 C.2      1 ZINC000000007455   -0.1400
11     C11     4.2407    0.6826   -5.3200 C.ar     1 ZINC000000007455   -0.0400
12     C12     3.3396    1.7472   -5.2978 C.ar     1 ZINC000000007455   -0.1000
13     C13     3.7672    3.0013   -4.9130 C.ar     1 ZINC000000007455   -0.1200
14     C14     5.0867    3.2042   -4.5497 C.ar     1 ZINC000000007455   -0.1100
15     C15     5.9853    2.1524   -4.5701 C.ar     1 ZINC000000007455   -0.1200
16     C16     5.5685    0.8924   -4.9475 C.ar     1 ZINC000000007455   -0.0900
17     C17     4.2454   -1.3924   -6.9207 C.2      1 ZINC000000007455    0.5100
18     O18     5.0587   -0.9746   -7.7217 O.2      1 ZINC000000007455   -0.4400
19     O19     3.6341   -2.5885   -6.9958 O.3      1 ZINC000000007455   -0.3100
20     C20     2.7440   -2.7164   -5.8529 C.3      1 ZINC000000007455    0.0700
21     C21     2.8909   -0.9106   -2.6354 C.ar     1 ZINC000000007455   -0.1100
22     C22     2.2227   -0.5773   -1.4767 C.ar     1 ZINC000000007455   -0.0200
23     H23     1.0001    2.1870    0.0043 H        1 ZINC000000007455    0.1300
24     H24    -0.5497    2.1708   -0.8711 H        1 ZINC000000007455    0.1300
25     H25    -0.5327    2.1613    0.9088 H        1 ZINC000000007455    0.1300
26     H26    -0.9409   -0.4686   -2.6587 H        1 ZINC000000007455    0.1500
27     H27     0.2257   -1.0539   -4.7422 H        1 ZINC000000007455    0.1400
28     H28     2.3095    1.5901   -5.5815 H        1 ZINC000000007455    0.1200
29     H29     3.0706    3.8264   -4.8958 H        1 ZINC000000007455    0.1300
30     H30     5.4166    4.1877   -4.2493 H        1 ZINC000000007455    0.1300
31     H31     7.0141    2.3171   -4.2858 H        1 ZINC000000007455    0.1300
32     H32     6.2708    0.0721   -4.9627 H        1 ZINC000000007455    0.1200
33     H33     3.0383   -3.5702   -5.2425 H        1 ZINC000000007455    0.1300
34     H34     1.7145   -2.8340   -6.1911 H        1 ZINC000000007455    0.1300
35     H35     3.9638   -1.0341   -2.6255 H        1 ZINC000000007455    0.1400
36     H36     2.7731   -0.4433   -0.5572 H        1 ZINC000000007455    0.1500
@<TRIPOS>BOND
1     1     2     1
2     1     23    1
3     1     24    1
4     1     25    1
5     2     3     2
6     2     4     2
7     2     5     1
8     5     22    ar
9     5     6     ar
10    6     7     ar
11    6     26    1
12    7     8     ar
13    7     27    1
14    8     9     1
15    8     21    ar
16    9     20    1
17    9     10    2
18    10    11    1
19    10    17    1
20    11    16    ar
21    11    12    ar
22    12    13    ar
23    12    28    1
24    13    14    ar
25    13    29    1
26    14    15    ar
27    14    30    1
28    15    16    ar
29    15    31    1
30    16    32    1
31    17    18    2
32    17    19    1
33    19    20    1
34    20    33    1
35    20    34    1
36    21    22    ar
37    21    35    1
38    22    36    1
@<TRIPOS>SUBSTRUCTURE
1   ZINC000000007455 1     RESIDUE    1   A     ZIN   1
