@<TRIPOS>MOLECULE
ZINC000000603090
  44   47    0    0    0
SMALL
USER_CHARGES
NO_NAME
@<TRIPOS>ATOM
    1 O1        0.0021    -0.0041     0.0020 O.2    1 <0>      -0.4700
    2 C2       -0.0144     1.2088     0.0087 C.2    1 <0>       0.5100
    3 C3        1.2803     1.9799     0.0005 C.3    1 <0>      -0.1000
    4 C4        2.4389     1.0163    -0.0158 C.ar   1 <0>      -0.0700
    5 C5        2.9780     0.5636     1.1739 C.ar   1 <0>      -0.1000
    6 C6        4.0408    -0.3203     1.1590 C.ar   1 <0>      -0.1200
    7 C7        4.5641    -0.7518    -0.0455 C.ar   1 <0>      -0.1200
    8 C8        4.0243    -0.2997    -1.2352 C.ar   1 <0>      -0.1200
    9 C9        2.9588     0.5808    -1.2203 C.ar   1 <0>      -0.1000
   10 N10      -1.1906     1.8667     0.0178 N.am   1 <0>      -0.6400
   11 C11      -2.3931     1.1505     0.0197 C.2    1 <0>       0.3100
   12 N12      -2.5156    -0.1502     0.0189 N.2    1 <0>      -0.2300
   13 N13      -3.8685    -0.5043     0.0212 N.pl3  1 <0>      -0.5000
   14 C14      -4.6330     0.6362     0.0237 C.ar   1 <0>       0.1200
   15 C15      -6.0053     0.8725     0.0259 C.ar   1 <0>      -0.1000
   16 C16      -6.4795     2.1529     0.0272 C.ar   1 <0>      -0.1100
   17 C17      -5.6028     3.2379     0.0258 C.ar   1 <0>       0.1700
   18 N18      -6.1093     4.5427     0.0272 N.am   1 <0>      -0.9300
   19 C19      -5.4265     5.7423    -0.4805 C.3    1 <0>       0.0700
   20 C20      -6.4610     6.7708    -0.9760 C.3    1 <0>      -0.1300
   21 C21      -7.5418     6.7984     0.1431 C.3    1 <0>      -0.5900
   22 S22      -7.6031     5.0229     0.5990 S.o2   1 <0>       2.5600
   23 O23      -8.5527     4.3208    -0.1913 O.2    1 <0>      -0.9400
   24 O24      -7.5273     4.8499     2.0074 O.2    1 <0>      -0.9400
   25 C25      -4.2372     3.0306     0.0236 C.ar   1 <0>      -0.0800
   26 C26      -3.7397     1.7239     0.0292 C.ar   1 <0>      -0.1500
   27 H27       1.3211     2.6121    -0.8866 H      1 <0>       0.1100
   28 H28       1.3381     2.6025     0.8933 H      1 <0>       0.1100
   29 H29       2.5692     0.9007     2.1149 H      1 <0>       0.1200
   30 H30       4.4624    -0.6735     2.0884 H      1 <0>       0.1200
   31 H31       5.3948    -1.4418    -0.0572 H      1 <0>       0.1200
   32 H32       4.4334    -0.6366    -2.1762 H      1 <0>       0.1200
   33 H33       2.5371     0.9340    -2.1497 H      1 <0>       0.1200
   34 H34      -1.2038     2.8366     0.0232 H      1 <0>       0.4200
   35 H35      -4.2121    -1.4114     0.0209 H      1 <0>       0.4500
   36 H36      -6.6955     0.0419     0.0263 H      1 <0>       0.1400
   37 H37      -7.5453     2.3276     0.0289 H      1 <0>       0.1400
   38 H38      -4.8314     6.1846     0.3185 H      1 <0>       0.0900
   39 H39      -4.7710     5.4629    -1.3054 H      1 <0>       0.1000
   40 H40      -6.0002     7.7526    -1.0852 H      1 <0>       0.1200
   41 H41      -6.8984     6.4468    -1.9204 H      1 <0>       0.1000
   42 H42      -7.2218     7.4135     0.9842 H      1 <0>       0.1500
   43 H43      -8.5025     7.1359    -0.2458 H      1 <0>       0.1500
   44 H44      -3.5591     3.8712     0.0226 H      1 <0>       0.1300
@<TRIPOS>BOND
   1    1    2 2
   2    2    3 1
   3    2   10 am
   4    3    4 1
   5    3   27 1
   6    3   28 1
   7    4    9 ar
   8    4    5 ar
   9    5    6 ar
  10    5   29 1
  11    6    7 ar
  12    6   30 1
  13    7    8 ar
  14    7   31 1
  15    8    9 ar
  16    8   32 1
  17    9   33 1
  18   10   11 1
  19   10   34 1
  20   11   26 1
  21   11   12 2
  22   12   13 1
  23   13   14 1
  24   13   35 1
  25   14   26 ar
  26   14   15 ar
  27   15   16 ar
  28   15   36 1
  29   16   17 ar
  30   16   37 1
  31   17   18 1
  32   17   25 ar
  33   18   22 am
  34   18   19 1
  35   19   20 1
  36   19   38 1
  37   19   39 1
  38   20   21 1
  39   20   40 1
  40   20   41 1
  41   21   22 1
  42   21   42 1
  43   21   43 1
  44   22   23 2
  45   22   24 2
  46   25   26 ar
  47   25   44 1
