@<TRIPOS>MOLECULE
ZINC000000144206
30    32    1     0     0
SMALL
USER_CHARGES
@<TRIPOS>ATOM
1      O1      0.1764   -0.0191   -0.8921 O.2      1 ZINC000000144206   -0.4500
2      C2      0.1046    1.1922   -0.7574 C.2      1 ZINC000000144206    0.4100
3      C3     -1.0609    1.9497   -1.0033 C.2      1 ZINC000000144206   -0.2200
4      C4     -2.2528    1.4518   -1.4185 C.2      1 ZINC000000144206    0.0300
5      C5     -3.3490    2.3226   -1.6288 C.2      1 ZINC000000144206   -0.2100
6      C6     -4.5999    1.9418   -2.0406 C.2      1 ZINC000000144206   -0.1000
7      C7     -5.4738    2.9954   -2.1633 C.2      1 ZINC000000144206   -0.1400
8      C8     -4.9625    4.1959   -1.8645 C.2      1 ZINC000000144206   -0.2600
9      S9     -3.3270    4.0653   -1.3967 S.3      1 ZINC000000144206    0.2200
10     C10    -0.7646    3.4047   -0.7281 C.3      1 ZINC000000144206   -0.1000
11     C11     0.7083    3.4432   -0.2889 C.3      1 ZINC000000144206   -0.0700
12     C12     1.1749    2.0076   -0.3307 C.2      1 ZINC000000144206   -0.2200
13     C13     2.4214    1.5734   -0.0169 C.2      1 ZINC000000144206    0.0400
14     C14     2.6832    0.1858    0.0836 C.2      1 ZINC000000144206   -0.2200
15     C15     3.8034   -0.4487   -0.3876 C.2      1 ZINC000000144206   -0.1000
16     C16     3.7972   -1.8031   -0.1542 C.2      1 ZINC000000144206   -0.1500
17     C17     2.7149   -2.2652    0.4838 C.2      1 ZINC000000144206   -0.2600
18     S18     1.6274   -0.9997    0.8396 S.3      1 ZINC000000144206    0.2700
19     H19    -2.3652    0.3912   -1.5885 H        1 ZINC000000144206    0.1500
20     H20    -4.8713    0.9172   -2.2479 H        1 ZINC000000144206    0.1500
21     H21    -6.4985    2.8644   -2.4784 H        1 ZINC000000144206    0.1400
22     H22    -5.5136    5.1237   -1.9090 H        1 ZINC000000144206    0.1600
23     H23    -0.9045    3.9963   -1.6329 H        1 ZINC000000144206    0.0900
24     H24    -1.4067    3.7765    0.0703 H        1 ZINC000000144206    0.0900
25     H25     1.2920    4.0538   -0.9778 H        1 ZINC000000144206    0.0900
26     H26     0.7899    3.8340    0.7253 H        1 ZINC000000144206    0.0900
27     H27     3.2139    2.2864    0.1561 H        1 ZINC000000144206    0.1400
28     H28     4.6092    0.0640   -0.8917 H        1 ZINC000000144206    0.1400
29     H29     4.6066   -2.4479   -0.4634 H        1 ZINC000000144206    0.1400
30     H30     2.5534   -3.3012    0.7428 H        1 ZINC000000144206    0.1600
@<TRIPOS>BOND
1     1     2     2
2     2     12    1
3     2     3     1
4     3     4     2
5     3     10    1
6     4     5     1
7     4     19    1
8     5     9     1
9     5     6     2
10    6     7     1
11    6     20    1
12    7     8     2
13    7     21    1
14    8     9     1
15    8     22    1
16    10    11    1
17    10    23    1
18    10    24    1
19    11    12    1
20    11    25    1
21    11    26    1
22    12    13    2
23    13    14    1
24    13    27    1
25    14    18    1
26    14    15    2
27    15    16    1
28    15    28    1
29    16    17    2
30    16    29    1
31    17    18    1
32    17    30    1
@<TRIPOS>SUBSTRUCTURE
1   ZINC000000144206 1     RESIDUE    1   A     ZIN   1
