@<TRIPOS>MOLECULE
ZINC000103241140
  46   49    0    0    0
SMALL
USER_CHARGES
NO_NAME
@<TRIPOS>ATOM
    1 C1       -1.6939     0.8458     0.3991 C.3    1 <0>       0.0500
    2 N2       -0.8104    -0.3043     0.1919 N.am   1 <0>      -0.5400
    3 C3       -0.9015    -1.0277    -0.9438 C.2    1 <0>       0.5300
    4 O4       -1.7152    -0.7334    -1.8040 O.2    1 <0>      -0.5300
    5 C5       -0.0416    -2.1262    -1.1180 C.2    1 <0>      -0.2600
    6 C6        0.8668    -2.4240    -0.1162 C.2    1 <0>       0.2400
    7 C7        1.7904    -3.5762    -0.2664 C.ar   1 <0>       0.2100
    8 C8        2.7057    -3.8878     0.7405 C.ar   1 <0>      -0.1800
    9 C9        3.5454    -4.9739     0.5514 C.ar   1 <0>       0.1500
   10 N10       3.4525    -5.6735    -0.5676 N.ar   1 <0>      -0.5100
   11 C11       2.5764    -5.3525    -1.4996 C.ar   1 <0>       0.3000
   12 N12       1.7559    -4.3329    -1.3611 N.ar   1 <0>      -0.5000
   13 N13       0.9092    -1.6680     0.9886 N.2    1 <0>      -0.5600
   14 C14       0.1044    -0.6379     1.1422 C.2    1 <0>       0.6400
   15 N15       0.1821     0.1079     2.2883 N.pl3  1 <0>      -0.6100
   16 C16       0.0395     1.5720     2.2505 C.3    1 <0>       0.0800
   17 C17       1.2163     2.1923     3.0123 C.3    1 <0>       0.0500
   18 O18       1.3043     1.5962     4.3087 O.3    1 <0>      -0.3700
   19 C19       1.5689     0.1914     4.2903 C.3    1 <0>       0.1200
   20 H20       2.4948     0.0024     3.7472 H      1 <0>       0.0900
   21 C21       1.7022    -0.3142     5.7037 C.ar   1 <0>      -0.1000
   22 C22       1.0812     0.3616     6.7383 C.ar   1 <0>      -0.0600
   23 C23       1.1989    -0.0956     8.0348 C.ar   1 <0>      -0.0800
   24 C24       1.9470    -1.2435     8.3027 C.ar   1 <0>       0.0100
   25 C25       2.0722    -1.7228     9.6463 C.1    1 <0>       0.2500
   26 N26       2.1715    -2.1030    10.7122 N.1    1 <0>      -0.4000
   27 C27       2.5722    -1.9225     7.2551 C.ar   1 <0>      -0.1100
   28 C28       2.4420    -1.4578     5.9605 C.ar   1 <0>       0.1200
   29 F29       3.0458    -2.1128     4.9448 F      1 <0>      -0.1300
   30 C30       0.4045    -0.5318     3.5947 C.3    1 <0>       0.1100
   31 H31      -1.1908     1.7546     0.0690 H      1 <0>       0.0800
   32 H32      -2.6099     0.7084    -0.1754 H      1 <0>       0.1000
   33 H33      -1.9383     0.9300     1.4580 H      1 <0>       0.0900
   34 H34      -0.0888    -2.7261    -2.0148 H      1 <0>       0.1700
   35 H35       2.7584    -3.2975     1.6434 H      1 <0>       0.1600
   36 H36       4.2668    -5.2456     1.3078 H      1 <0>       0.1700
   37 H37       2.5284    -5.9457    -2.4009 H      1 <0>       0.2000
   38 H38       0.0500     1.9153     1.2160 H      1 <0>       0.1000
   39 H39      -0.8983     1.8619     2.7245 H      1 <0>       0.0900
   40 H40       2.1409     2.0105     2.4645 H      1 <0>       0.0600
   41 H41       1.0582     3.2658     3.1151 H      1 <0>       0.1200
   42 H42       0.5028     1.2498     6.5308 H      1 <0>       0.1500
   43 H43       0.7134     0.4340     8.8411 H      1 <0>       0.1400
   44 H44       3.1524    -2.8111     7.4556 H      1 <0>       0.1500
   45 H45      -0.4944    -0.4528     4.2061 H      1 <0>       0.0900
   46 H46       0.6589    -1.5817     3.4491 H      1 <0>       0.1100
@<TRIPOS>BOND
   1    1    2 1
   2    1   31 1
   3    1   32 1
   4    1   33 1
   5    2   14 1
   6    2    3 am
   7    3    4 2
   8    3    5 1
   9    5    6 2
  10    5   34 1
  11    6    7 1
  12    6   13 1
  13    7   12 ar
  14    7    8 ar
  15    8    9 ar
  16    8   35 1
  17    9   10 ar
  18    9   36 1
  19   10   11 ar
  20   11   12 ar
  21   11   37 1
  22   13   14 2
  23   14   15 1
  24   15   30 1
  25   15   16 1
  26   16   17 1
  27   16   38 1
  28   16   39 1
  29   17   18 1
  30   17   40 1
  31   17   41 1
  32   18   19 1
  33   19   20 1
  34   19   21 1
  35   19   30 1
  36   21   28 ar
  37   21   22 ar
  38   22   23 ar
  39   22   42 1
  40   23   24 ar
  41   23   43 1
  42   24   25 1
  43   24   27 ar
  44   25   26 3
  45   27   28 ar
  46   27   44 1
  47   28   29 1
  48   30   45 1
  49   30   46 1
