@<TRIPOS>MOLECULE
ZINC000299868668
76    83    1     0     0
SMALL
USER_CHARGES
@<TRIPOS>ATOM
1      N1     -0.0426   -0.4380    2.8408 N.1      1 ZINC000299868668   -0.4000
2      C2      0.0687    0.6925    2.8381 C.1      1 ZINC000299868668    0.2700
3      C3      0.2090    2.1176    2.8348 C.ar     1 ZINC000299868668   -0.0600
4      C4     -0.8675    2.9466    3.2143 C.ar     1 ZINC000299868668    0.0700
5      C5     -2.1670    2.3646    3.6248 C.ar     1 ZINC000299868668   -0.0700
6      C6     -2.7775    2.7800    4.8076 C.ar     1 ZINC000299868668   -0.0900
7      C7     -3.9876    2.2344    5.1847 C.ar     1 ZINC000299868668   -0.1200
8      C8     -4.5949    1.2771    4.3919 C.ar     1 ZINC000299868668   -0.1000
9      C9     -3.9937    0.8606    3.2176 C.ar     1 ZINC000299868668   -0.1200
10     C10    -2.7867    1.4035    2.8270 C.ar     1 ZINC000299868668   -0.0900
11     C11    -0.6772    4.3273    3.1937 C.ar     1 ZINC000299868668   -0.1700
12     C12     0.5562    4.8424    2.8034 C.ar     1 ZINC000299868668    0.2400
13     C13     0.7573    6.3112    2.7824 C.ar     1 ZINC000299868668   -0.0600
14     C14    -0.2796    7.1648    3.1563 C.ar     1 ZINC000299868668   -0.0900
15     C15    -0.0865    8.5310    3.1353 C.ar     1 ZINC000299868668   -0.1200
16     C16     1.1330    9.0540    2.7442 C.ar     1 ZINC000299868668   -0.1000
17     C17     2.1655    8.2119    2.3721 C.ar     1 ZINC000299868668   -0.1300
18     C18     1.9858    6.8439    2.3943 C.ar     1 ZINC000299868668   -0.0700
19     N19     1.5549    4.0437    2.4504 N.ar     1 ZINC000299868668   -0.5300
20     C20     1.4311    2.7203    2.4566 C.ar     1 ZINC000299868668    0.3800
21     N21     2.4763    1.9462    2.0892 N.2      1 ZINC000299868668   -0.5000
22     C22     3.6172    2.5056    1.7253 C.2      1 ZINC000299868668    0.4200
23     S23     3.9895    4.2384    1.6556 S.3      1 ZINC000299868668    0.1600
24     C24     5.6543    3.9956    1.0921 C.2      1 ZINC000299868668   -0.3900
25     C25     6.6042    4.9730    0.8065 C.2      1 ZINC000299868668    0.2500
26     S26     6.3241    6.6915    0.4677 S.3      1 ZINC000299868668    0.0900
27     C27     8.0412    7.0712    0.2449 C.2      1 ZINC000299868668    0.1300
28     C28     8.6264    8.3903   -0.0812 C.ar     1 ZINC000299868668   -0.0300
29     C29    10.0069    8.5267   -0.2302 C.ar     1 ZINC000299868668   -0.0700
30     C30    10.5464    9.7596   -0.5343 C.ar     1 ZINC000299868668   -0.1200
31     C31     9.7217   10.8593   -0.6911 C.ar     1 ZINC000299868668   -0.0900
32     C32     8.3520   10.7307   -0.5443 C.ar     1 ZINC000299868668   -0.1200
33     C33     7.7995    9.5019   -0.2468 C.ar     1 ZINC000299868668   -0.0800
34     N34     8.6812    5.9553    0.4269 N.2      1 ZINC000299868668   -0.2300
35     N35     7.9584    4.8235    0.7307 N.pl3    1 ZINC000299868668   -0.3400
36     C36     8.5771    3.5871    0.9406 C.ar     1 ZINC000299868668    0.1700
37     C37     9.2889    2.9813   -0.0873 C.ar     1 ZINC000299868668   -0.0800
38     C38     9.8986    1.7603    0.1234 C.ar     1 ZINC000299868668   -0.1000
39     C39     9.8010    1.1404    1.3558 C.ar     1 ZINC000299868668   -0.1000
40     C40     9.0929    1.7404    2.3811 C.ar     1 ZINC000299868668   -0.1000
41     C41     8.4863    2.9644    2.1793 C.ar     1 ZINC000299868668   -0.0900
42     C42     5.8040    2.6133    0.9985 C.2      1 ZINC000299868668    0.5600
43     O43     6.8550    2.1100    0.6318 O.2      1 ZINC000299868668   -0.4700
44     N44     4.7623    1.8698    1.3284 N.am     1 ZINC000299868668   -0.4800
45     C45     4.8253    0.4716    1.2642 C.ar     1 ZINC000299868668    0.1300
46     C46     4.7738   -0.2813    2.4298 C.ar     1 ZINC000299868668   -0.0900
47     C47     4.8356   -1.6594    2.3632 C.ar     1 ZINC000299868668   -0.1100
48     C48     4.9491   -2.2895    1.1375 C.ar     1 ZINC000299868668   -0.1100
49     C49     5.0010   -1.5424   -0.0249 C.ar     1 ZINC000299868668   -0.1100
50     C50     4.9334   -0.1642    0.0346 C.ar     1 ZINC000299868668   -0.0900
51     H51    -2.3042    3.5270    5.4275 H        1 ZINC000299868668    0.1300
52     H52    -4.4613    2.5550    6.1008 H        1 ZINC000299868668    0.1300
53     H53    -5.5419    0.8528    4.6911 H        1 ZINC000299868668    0.1300
54     H54    -4.4724    0.1127    2.6029 H        1 ZINC000299868668    0.1300
55     H55    -2.3183    1.0776    1.9100 H        1 ZINC000299868668    0.1200
56     H56    -1.4797    4.9919    3.4777 H        1 ZINC000299868668    0.1500
57     H57    -1.2322    6.7576    3.4615 H        1 ZINC000299868668    0.1300
58     H58    -0.8892    9.1933    3.4244 H        1 ZINC000299868668    0.1300
59     H59     1.2794   10.1239    2.7289 H        1 ZINC000299868668    0.1300
60     H60     3.1153    8.6258    2.0673 H        1 ZINC000299868668    0.1300
61     H61     2.7927    6.1874    2.1039 H        1 ZINC000299868668    0.1300
62     H62    10.6518    7.6692   -0.1073 H        1 ZINC000299868668    0.1400
63     H63    11.6149    9.8665   -0.6499 H        1 ZINC000299868668    0.1400
64     H64    10.1489   11.8223   -0.9288 H        1 ZINC000299868668    0.1300
65     H65     7.7136   11.5930   -0.6673 H        1 ZINC000299868668    0.1400
66     H66     6.7302    9.4026   -0.1328 H        1 ZINC000299868668    0.1300
67     H67     9.3649    3.4645   -1.0502 H        1 ZINC000299868668    0.1200
68     H68    10.4520    1.2888   -0.6753 H        1 ZINC000299868668    0.1300
69     H69    10.2785    0.1853    1.5177 H        1 ZINC000299868668    0.1200
70     H70     9.0180    1.2532    3.3420 H        1 ZINC000299868668    0.1300
71     H71     7.9335    3.4324    2.9804 H        1 ZINC000299868668    0.1200
72     H72     4.6859    0.2103    3.3874 H        1 ZINC000299868668    0.1200
73     H73     4.7957   -2.2456    3.2694 H        1 ZINC000299868668    0.1300
74     H74     4.9976   -3.3673    1.0881 H        1 ZINC000299868668    0.1300
75     H75     5.0900   -2.0373   -0.9807 H        1 ZINC000299868668    0.1300
76     H76     4.9737    0.4188   -0.8737 H        1 ZINC000299868668    0.1200
@<TRIPOS>BOND
1     1     2     3
2     2     3     1
3     3     20    ar
4     3     4     ar
5     4     5     1
6     4     11    ar
7     5     10    ar
8     5     6     ar
9     6     7     ar
10    6     51    1
11    7     8     ar
12    7     52    1
13    8     9     ar
14    8     53    1
15    9     10    ar
16    9     54    1
17    10    55    1
18    11    12    ar
19    11    56    1
20    12    13    1
21    12    19    ar
22    13    18    ar
23    13    14    ar
24    14    15    ar
25    14    57    1
26    15    16    ar
27    15    58    1
28    16    17    ar
29    16    59    1
30    17    18    ar
31    17    60    1
32    18    61    1
33    19    20    ar
34    20    21    1
35    21    22    2
36    22    44    1
37    22    23    1
38    23    24    1
39    24    25    2
40    24    42    1
41    25    35    1
42    25    26    1
43    26    27    1
44    27    28    1
45    27    34    2
46    28    33    ar
47    28    29    ar
48    29    30    ar
49    29    62    1
50    30    31    ar
51    30    63    1
52    31    32    ar
53    31    64    1
54    32    33    ar
55    32    65    1
56    33    66    1
57    34    35    1
58    35    36    1
59    36    41    ar
60    36    37    ar
61    37    38    ar
62    37    67    1
63    38    39    ar
64    38    68    1
65    39    40    ar
66    39    69    1
67    40    41    ar
68    40    70    1
69    41    71    1
70    42    43    2
71    42    44    am
72    44    45    1
73    45    50    ar
74    45    46    ar
75    46    47    ar
76    46    72    1
77    47    48    ar
78    47    73    1
79    48    49    ar
80    48    74    1
81    49    50    ar
82    49    75    1
83    50    76    1
@<TRIPOS>SUBSTRUCTURE
1   ZINC000299868668 1     RESIDUE    1   A     ZIN   1
