@<TRIPOS>MOLECULE
ZINC000000407231
  35   37    0    0    0
SMALL
USER_CHARGES
NO_NAME
@<TRIPOS>ATOM
    1 C1       -0.0173     1.4248     0.0099 C.3    1 <0>       0.0200
    2 O2        0.0021    -0.0041     0.0020 O.3    1 <0>      -0.3000
    3 C3        0.6051    -0.6064    -1.0545 C.ar   1 <0>       0.2300
    4 C4        1.1710     0.1707    -2.0591 C.ar   1 <0>      -0.3300
    5 C5        1.7883    -0.4324    -3.1396 C.ar   1 <0>       0.2600
    6 O6        2.3416     0.3243    -4.1209 O.3    1 <0>      -0.2800
    7 C7        2.2509     1.7429    -3.9752 C.3    1 <0>       0.0200
    8 C8        1.8384    -1.8300    -3.2134 C.ar   1 <0>      -0.2900
    9 C9        2.4860    -2.5136    -4.3454 C.2    1 <0>       0.4300
   10 O10       3.0000    -1.8846    -5.2560 O.2    1 <0>      -0.4600
   11 C11       2.4892    -3.9300    -4.3354 C.2    1 <0>      -0.3000
   12 C12       1.9066    -4.5941    -3.3030 C.2    1 <0>       0.2000
   13 C13       1.9203    -6.0708    -3.3108 C.ar   1 <0>      -0.0700
   14 C14       2.5283    -6.7611    -4.3615 C.ar   1 <0>      -0.0800
   15 C15       2.5374    -8.1405    -4.3625 C.ar   1 <0>      -0.1200
   16 C16       1.9458    -8.8401    -3.3255 C.ar   1 <0>      -0.0900
   17 C17       1.3415    -8.1626    -2.2813 C.ar   1 <0>      -0.1200
   18 C18       1.3302    -6.7833    -2.2647 C.ar   1 <0>      -0.0800
   19 O19       1.3196    -3.9597    -2.2760 O.3    1 <0>      -0.2200
   20 C20       1.2653    -2.6133    -2.1962 C.ar   1 <0>       0.2300
   21 C21       0.6557    -1.9906    -1.1185 C.ar   1 <0>      -0.2200
   22 H22       1.0053     1.8021     0.0021 H      1 <0>       0.0600
   23 H23      -0.5445     1.7859    -0.8732 H      1 <0>       0.0600
   24 H24      -0.5275     1.7763     0.9067 H      1 <0>       0.1100
   25 H25       1.1281     1.2480    -1.9955 H      1 <0>       0.1500
   26 H26       2.7314     2.2269    -4.8255 H      1 <0>       0.1100
   27 H27       1.2024     2.0377    -3.9341 H      1 <0>       0.0600
   28 H28       2.7500     2.0463    -3.0549 H      1 <0>       0.0600
   29 H29       2.9512    -4.4783    -5.1431 H      1 <0>       0.1600
   30 H30       2.9901    -6.2163    -5.1717 H      1 <0>       0.1400
   31 H31       3.0069    -8.6756    -5.1746 H      1 <0>       0.1300
   32 H32       1.9554    -9.9201    -3.3315 H      1 <0>       0.1300
   33 H33       0.8817    -8.7149    -1.4751 H      1 <0>       0.1300
   34 H34       0.8582    -6.2557    -1.4490 H      1 <0>       0.1400
   35 H35       0.2167    -2.5837    -0.3300 H      1 <0>       0.1500
@<TRIPOS>BOND
   1    1    2 1
   2    1   22 1
   3    1   23 1
   4    1   24 1
   5    2    3 1
   6    3   21 ar
   7    3    4 ar
   8    4    5 ar
   9    4   25 1
  10    5    6 1
  11    5    8 ar
  12    6    7 1
  13    7   26 1
  14    7   27 1
  15    7   28 1
  16    8   20 ar
  17    8    9 1
  18    9   10 2
  19    9   11 1
  20   11   12 2
  21   11   29 1
  22   12   13 1
  23   12   19 1
  24   13   18 ar
  25   13   14 ar
  26   14   15 ar
  27   14   30 1
  28   15   16 ar
  29   15   31 1
  30   16   17 ar
  31   16   32 1
  32   17   18 ar
  33   17   33 1
  34   18   34 1
  35   19   20 1
  36   20   21 ar
  37   21   35 1
