@<TRIPOS>MOLECULE
ZINC000145557083
65    70    1     0     0
SMALL
USER_CHARGES
@<TRIPOS>ATOM
1      C1      1.3689    1.4846   -0.9726 C.3      1 ZINC000145557083    0.0300
2      O2      0.8618    0.1972   -0.6156 O.3      1 ZINC000145557083   -0.3100
3      C3      1.4789   -0.4466    0.4122 C.ar     1 ZINC000145557083    0.0900
4      C4      2.5442    0.1519    1.0643 C.ar     1 ZINC000145557083   -0.1500
5      C5      3.1719   -0.5005    2.1089 C.ar     1 ZINC000145557083   -0.1100
6      C6      2.7358   -1.7572    2.5066 C.ar     1 ZINC000145557083    0.1500
7      N7      3.3721   -2.4163    3.5647 N.pl3    1 ZINC000145557083   -0.6300
8      C8      3.8953   -1.6871    4.6210 C.2      1 ZINC000145557083    0.4900
9      N9      3.7020   -0.3864    4.6866 N.2      1 ZINC000145557083   -0.5300
10     C10     4.1998    0.3407    5.7022 C.2      1 ZINC000145557083    0.1700
11     C11     3.9585    1.8041    5.7387 C.ar     1 ZINC000145557083   -0.0400
12     C12     4.4739    2.5710    6.7831 C.ar     1 ZINC000145557083   -0.0800
13     C13     4.2503    3.9338    6.8198 C.ar     1 ZINC000145557083   -0.1200
14     C14     3.5160    4.5456    5.8241 C.ar     1 ZINC000145557083   -0.0800
15     C15     2.9944    3.7885    4.7725 C.ar     1 ZINC000145557083   -0.1400
16     C16     2.2079    4.4441    3.7062 C.2      1 ZINC000145557083    0.5600
17     O17     1.7546    3.7837    2.7918 O.2      1 ZINC000145557083   -0.5100
18     N18     1.9933    5.7741    3.7479 N.am     1 ZINC000145557083   -0.6700
19     C19     1.1644    6.3788    2.7977 C.ar     1 ZINC000145557083    0.1400
20     C20     0.0648    5.6913    2.2983 C.ar     1 ZINC000145557083   -0.1100
21     C21    -0.7542    6.2860    1.3616 C.ar     1 ZINC000145557083   -0.1000
22     C22    -0.4784    7.5770    0.9158 C.ar     1 ZINC000145557083   -0.0100
23     C23    -1.3591    8.2194   -0.0923 C.2      1 ZINC000145557083   -0.2000
24     C24    -1.2049    9.4688   -0.6182 C.2      1 ZINC000145557083    0.0700
25     N25    -2.2099    9.6692   -1.4951 N.pl3    1 ZINC000145557083   -0.4700
26     N26    -3.0080    8.5190   -1.5160 N.2      1 ZINC000145557083   -0.2900
27     C27    -2.5020    7.6474   -0.6841 C.2      1 ZINC000145557083    0.0700
28     C28     0.6247    8.2646    1.4178 C.ar     1 ZINC000145557083   -0.1000
29     C29     1.4381    7.6684    2.3584 C.ar     1 ZINC000145557083   -0.1400
30     C30     3.2225    2.4143    4.7279 C.ar     1 ZINC000145557083   -0.0200
31     C31     4.9200   -0.2428    6.6961 C.2      1 ZINC000145557083   -0.0500
32     N32     5.1469   -1.5925    6.6704 N.pl3    1 ZINC000145557083   -0.3300
33     C33     5.8115   -2.4477    7.4947 C.2      1 ZINC000145557083   -0.0600
34     C34     5.7017   -3.6858    6.9569 C.2      1 ZINC000145557083    0.0300
35     N35     4.9897   -3.5985    5.8326 N.2      1 ZINC000145557083   -0.4600
36     C36     4.6366   -2.3397    5.6393 C.2      1 ZINC000145557083    0.1400
37     C37     1.6678   -2.3601    1.8547 C.ar     1 ZINC000145557083   -0.2000
38     C38     1.0358   -1.7042    0.8119 C.ar     1 ZINC000145557083    0.1200
39     O39    -0.0101   -2.2924    0.1721 O.3      1 ZINC000145557083   -0.3000
40     C40    -0.4039   -3.5882    0.6282 C.3      1 ZINC000145557083    0.0300
41     H41     2.4139    1.3941   -1.2690 H        1 ZINC000145557083    0.0500
42     H42     0.7890    1.8859   -1.8037 H        1 ZINC000145557083    0.1000
43     H43     1.2906    2.1558   -0.1174 H        1 ZINC000145557083    0.0600
44     H44     2.8851    1.1293    0.7562 H        1 ZINC000145557083    0.1400
45     H45     4.0027   -0.0323    2.6160 H        1 ZINC000145557083    0.1400
46     H46     3.4469   -3.3834    3.5588 H        1 ZINC000145557083    0.4300
47     H47     5.0490    2.0983    7.5656 H        1 ZINC000145557083    0.1300
48     H48     4.6515    4.5229    7.6312 H        1 ZINC000145557083    0.1400
49     H49     3.3441    5.6113    5.8582 H        1 ZINC000145557083    0.1300
50     H50     2.4139    6.3118    4.4370 H        1 ZINC000145557083    0.4100
51     H51    -0.1484    4.6906    2.6438 H        1 ZINC000145557083    0.1400
52     H52    -1.6085    5.7513    0.9734 H        1 ZINC000145557083    0.1300
53     H53    -0.4204   10.1704   -0.3760 H        1 ZINC000145557083    0.1800
54     H54    -2.3549   10.4717   -2.0203 H        1 ZINC000145557083    0.4400
55     H55    -2.8953    6.6622   -0.4811 H        1 ZINC000145557083    0.1900
56     H56     0.8403    9.2652    1.0733 H        1 ZINC000145557083    0.1200
57     H57     2.2930    8.2011    2.7480 H        1 ZINC000145557083    0.1300
58     H58     2.8219    1.8242    3.9170 H        1 ZINC000145557083    0.1500
59     H59     5.3126    0.3568    7.5040 H        1 ZINC000145557083    0.1700
60     H60     6.3296   -2.1878    8.4060 H        1 ZINC000145557083    0.1900
61     H61     6.1207   -4.5918    7.3692 H        1 ZINC000145557083    0.1900
62     H62     1.3281   -3.3376    2.1636 H        1 ZINC000145557083    0.1400
63     H63    -0.6967   -3.5308    1.6766 H        1 ZINC000145557083    0.0500
64     H64    -1.2468   -3.9417    0.0344 H        1 ZINC000145557083    0.1000
65     H65     0.4314   -4.2802    0.5215 H        1 ZINC000145557083    0.0500
@<TRIPOS>BOND
1     1     2     1
2     1     41    1
3     1     42    1
4     1     43    1
5     2     3     1
6     3     38    ar
7     3     4     ar
8     4     5     ar
9     4     44    1
10    5     6     ar
11    5     45    1
12    6     7     1
13    6     37    ar
14    7     8     1
15    7     46    1
16    8     36    1
17    8     9     2
18    9     10    1
19    10    11    1
20    10    31    2
21    11    30    ar
22    11    12    ar
23    12    13    ar
24    12    47    1
25    13    14    ar
26    13    48    1
27    14    15    ar
28    14    49    1
29    15    16    1
30    15    30    ar
31    16    17    2
32    16    18    am
33    18    19    1
34    18    50    1
35    19    29    ar
36    19    20    ar
37    20    21    ar
38    20    51    1
39    21    22    ar
40    21    52    1
41    22    23    1
42    22    28    ar
43    23    27    1
44    23    24    2
45    24    25    1
46    24    53    1
47    25    26    1
48    25    54    1
49    26    27    2
50    27    55    1
51    28    29    ar
52    28    56    1
53    29    57    1
54    30    58    1
55    31    32    1
56    31    59    1
57    32    36    1
58    32    33    1
59    33    34    2
60    33    60    1
61    34    35    1
62    34    61    1
63    35    36    2
64    37    38    ar
65    37    62    1
66    38    39    1
67    39    40    1
68    40    63    1
69    40    64    1
70    40    65    1
@<TRIPOS>SUBSTRUCTURE
1   ZINC000145557083 1     RESIDUE    1   A     ZIN   1
