@<TRIPOS>MOLECULE
ZINC000000057537
33    34    1     0     0
SMALL
USER_CHARGES
@<TRIPOS>ATOM
1      C1      0.0128    1.5212   -0.0064 C.3      1 ZINC000000057537   -0.0800
2      C2      0.0167    0.0142   -0.0022 C.2      1 ZINC000000057537   -0.1100
3      C3     -0.0876   -0.8102   -1.1058 C.2      1 ZINC000000057537   -0.1000
4      C4     -0.2227   -0.3792   -2.4992 C.2      1 ZINC000000057537    0.4800
5      O5     -1.3238   -0.1319   -2.9558 O.2      1 ZINC000000057537   -0.4300
6      C6      0.9780   -0.2446   -3.3511 C.ar     1 ZINC000000057537   -0.1500
7      C7      2.2272   -0.6414   -2.8694 C.ar     1 ZINC000000057537   -0.0500
8      C8      3.3434   -0.5139   -3.6689 C.ar     1 ZINC000000057537   -0.1200
9      C9      3.2274    0.0071   -4.9472 C.ar     1 ZINC000000057537   -0.0100
10     Cl10    4.6374    0.1651   -5.9475 Cl       1 ZINC000000057537   -0.0700
11     C11     1.9908    0.4020   -5.4307 C.ar     1 ZINC000000057537   -0.1300
12     C12     0.8665    0.2744   -4.6427 C.ar     1 ZINC000000057537   -0.0500
13     N13    -0.0408   -2.1110   -0.6568 N.pl3    1 ZINC000000057537   -0.4200
14     C14    -0.1188   -3.3084   -1.4972 C.3      1 ZINC000000057537    0.0700
15     C15     0.0893   -2.0991    0.6922 C.2      1 ZINC000000057537    0.1200
16     C16     0.1782   -3.3174    1.5746 C.3      1 ZINC000000057537   -0.1300
17     C17    -1.1917   -3.6550    2.1044 C.2      1 ZINC000000057537    0.5000
18     O18    -2.1512   -2.9697    1.7942 O.co2    1 ZINC000000057537   -0.6800
19     O19    -1.3405   -4.6133    2.8433 O.co2    1 ZINC000000057537   -0.7000
20     C20     0.1326   -0.8126    1.1179 C.2      1 ZINC000000057537   -0.2100
21     H21     1.0394    1.8872   -0.0254 H        1 ZINC000000057537    0.0600
22     H22    -0.5174    1.8807   -0.8883 H        1 ZINC000000057537    0.0500
23     H23    -0.4863    1.8858    0.8914 H        1 ZINC000000057537    0.0700
24     H24     2.3190   -1.0471   -1.8727 H        1 ZINC000000057537    0.1400
25     H25     4.3101   -0.8204   -3.2975 H        1 ZINC000000057537    0.1400
26     H26     1.9065    0.8071   -6.4283 H        1 ZINC000000057537    0.1400
27     H27    -0.0971    0.5823   -5.0209 H        1 ZINC000000057537    0.1400
28     H28     0.8848   -3.6027   -1.8043 H        1 ZINC000000057537    0.0700
29     H29    -0.5783   -4.1195   -0.9323 H        1 ZINC000000057537    0.0900
30     H30    -0.7207   -3.0940   -2.3802 H        1 ZINC000000057537    0.0700
31     H31     0.5612   -4.1580    0.9960 H        1 ZINC000000057537    0.0700
32     H32     0.8502   -3.1140    2.4084 H        1 ZINC000000057537    0.0900
33     H33     0.2323   -0.4850    2.1422 H        1 ZINC000000057537    0.1300
@<TRIPOS>BOND
1     1     2     1
2     1     21    1
3     1     22    1
4     1     23    1
5     2     20    1
6     2     3     2
7     3     4     1
8     3     13    1
9     4     5     2
10    4     6     1
11    6     12    ar
12    6     7     ar
13    7     8     ar
14    7     24    1
15    8     9     ar
16    8     25    1
17    9     10    1
18    9     11    ar
19    11    12    ar
20    11    26    1
21    12    27    1
22    13    14    1
23    13    15    1
24    14    28    1
25    14    29    1
26    14    30    1
27    15    16    1
28    15    20    2
29    16    17    1
30    16    31    1
31    16    32    1
32    17    18    ar
33    17    19    ar
34    20    33    1
@<TRIPOS>SUBSTRUCTURE
1   ZINC000000057537 1     RESIDUE    1   A     ZIN   1
