@<TRIPOS>MOLECULE
ZINC000114904067
75    79    1     0     0
SMALL
USER_CHARGES
@<TRIPOS>ATOM
1      C1      2.2943    0.9641   -2.4187 C.3      1 ZINC000114904067   -0.0700
2      N2      1.7564    1.0861   -1.0572 N.4      1 ZINC000114904067   -0.3900
3      H3      2.3550    0.5909   -0.4134 H        1 ZINC000114904067    0.4200
4      C4      1.6978    2.5044   -0.6791 C.3      1 ZINC000114904067   -0.0500
5      C5      0.4055    0.5109   -1.0109 C.3      1 ZINC000114904067    0.0000
6      C6      0.5023   -1.0023   -0.8060 C.3      1 ZINC000114904067   -0.0800
7      C7      1.2850   -1.6247   -1.9639 C.3      1 ZINC000114904067   -0.1700
8      C8      1.2232   -1.2934    0.5117 C.3      1 ZINC000114904067   -0.1600
9      C9     -0.9046   -1.6018   -0.7609 C.3      1 ZINC000114904067    0.0700
10     O10    -0.8143   -3.0151   -0.5695 O.3      1 ZINC000114904067   -0.3100
11     C11    -1.9841   -3.7056   -0.5064 C.ar     1 ZINC000114904067    0.0900
12     C12    -3.1952   -3.0307   -0.6328 C.ar     1 ZINC000114904067   -0.1800
13     C13    -4.3900   -3.7144   -0.5707 C.ar     1 ZINC000114904067   -0.0900
14     C14    -4.3945   -5.0913   -0.3804 C.ar     1 ZINC000114904067    0.0800
15     N15    -5.4052   -6.0261   -0.2778 N.pl3    1 ZINC000114904067   -0.5900
16     C16    -4.8643   -7.2772   -0.0899 C.2      1 ZINC000114904067    0.1600
17     C17    -5.6377   -8.5251    0.0620 C.2      1 ZINC000114904067   -0.1700
18     C18    -6.4041   -9.0115   -0.9883 C.2      1 ZINC000114904067    0.0300
19     C19    -7.1266  -10.2004   -0.8091 C.2      1 ZINC000114904067    0.0300
20     N20    -7.9080  -10.7116   -1.8571 N.am     1 ZINC000114904067   -0.6700
21     C21    -8.8910   -9.9610   -2.3928 C.2      1 ZINC000114904067    0.6000
22     O22    -9.0442   -8.8105   -2.0296 O.2      1 ZINC000114904067   -0.5400
23     C23    -9.7805  -10.5347   -3.4189 C.2      1 ZINC000114904067   -0.3000
24     C24   -10.8200   -9.8880   -4.0567 C.2      1 ZINC000114904067    0.1400
25     N25   -11.3713  -10.7619   -4.9142 N.pl3    1 ZINC000114904067   -0.3500
26     C26   -12.5076  -10.4925   -5.7987 C.3      1 ZINC000114904067    0.1700
27     C27   -12.1223  -10.8066   -7.2214 C.ar     1 ZINC000114904067   -0.1200
28     C28   -11.5601   -9.8265   -8.0177 C.ar     1 ZINC000114904067   -0.1000
29     C29   -11.2067  -10.1146   -9.3227 C.ar     1 ZINC000114904067   -0.1200
30     C30   -11.4151  -11.3831   -9.8312 C.ar     1 ZINC000114904067   -0.1000
31     C31   -11.9765  -12.3635   -9.0345 C.ar     1 ZINC000114904067   -0.1200
32     C32   -12.3259  -12.0765   -7.7282 C.ar     1 ZINC000114904067   -0.0800
33     N33   -10.6770  -11.9733   -4.8209 N.2      1 ZINC000114904067   -0.2800
34     C34    -9.7248  -11.8476   -3.9381 C.2      1 ZINC000114904067    0.0800
35     C35    -7.0694  -10.8582    0.3802 C.2      1 ZINC000114904067    0.1400
36     N36    -6.3194  -10.3822    1.4093 N.am     1 ZINC000114904067   -0.6000
37     C37    -5.6046   -9.2485    1.2809 C.2      1 ZINC000114904067    0.5300
38     O38    -4.9376   -8.8382    2.2163 O.2      1 ZINC000114904067   -0.5300
39     C39    -3.5094   -7.1875   -0.0661 C.2      1 ZINC000114904067   -0.1700
40     C40    -3.1719   -5.7776   -0.2526 C.ar     1 ZINC000114904067   -0.0700
41     C41    -1.9657   -5.0738   -0.3228 C.ar     1 ZINC000114904067   -0.1000
42     H42     3.2171    1.5387   -2.4976 H        1 ZINC000114904067    0.1200
43     H43     2.4993   -0.0843   -2.6357 H        1 ZINC000114904067    0.1400
44     H44     1.5655    1.3472   -3.1330 H        1 ZINC000114904067    0.1200
45     H45     2.6844    2.9528   -0.7966 H        1 ZINC000114904067    0.1300
46     H46     0.9847    3.0223   -1.3205 H        1 ZINC000114904067    0.1200
47     H47     1.3810    2.5906    0.3602 H        1 ZINC000114904067    0.1200
48     H48    -0.1503    0.9546   -0.1849 H        1 ZINC000114904067    0.1300
49     H49    -0.1100    0.7183   -1.9487 H        1 ZINC000114904067    0.1400
50     H50     2.3505   -1.4455   -1.8200 H        1 ZINC000114904067    0.0700
51     H51     1.0979   -2.6981   -1.9935 H        1 ZINC000114904067    0.1000
52     H52     0.9644   -1.1740   -2.9031 H        1 ZINC000114904067    0.0700
53     H53     0.6460   -0.8825    1.3401 H        1 ZINC000114904067    0.0700
54     H54     1.3256   -2.3710    0.6395 H        1 ZINC000114904067    0.1000
55     H55     2.2115   -0.8340    0.4944 H        1 ZINC000114904067    0.0500
56     H56    -1.4623   -1.1584    0.0640 H        1 ZINC000114904067    0.0700
57     H57    -1.4182   -1.3944   -1.6997 H        1 ZINC000114904067    0.0700
58     H58    -3.1984   -1.9608   -0.7805 H        1 ZINC000114904067    0.1300
59     H59    -5.3233   -3.1802   -0.6698 H        1 ZINC000114904067    0.1300
60     H60    -6.3539   -5.8304   -0.3300 H        1 ZINC000114904067    0.4200
61     H61    -6.4438   -8.4824   -1.9289 H        1 ZINC000114904067    0.1400
62     H62    -7.7406  -11.6050   -2.1958 H        1 ZINC000114904067    0.4100
63     H63   -11.1327   -8.8669   -3.8953 H        1 ZINC000114904067    0.1900
64     H64   -13.3524  -11.1155   -5.5050 H        1 ZINC000114904067    0.1000
65     H65   -12.7869   -9.4417   -5.7215 H        1 ZINC000114904067    0.1100
66     H66   -11.3973   -8.8355   -7.6204 H        1 ZINC000114904067    0.1200
67     H67   -10.7682   -9.3487   -9.9451 H        1 ZINC000114904067    0.1300
68     H68   -11.1397  -11.6080  -10.8509 H        1 ZINC000114904067    0.1300
69     H69   -12.1396  -13.3544   -9.4319 H        1 ZINC000114904067    0.1300
70     H70   -12.7645  -12.8424   -7.1058 H        1 ZINC000114904067    0.1300
71     H71    -9.0214  -12.6148   -3.6498 H        1 ZINC000114904067    0.1900
72     H72    -7.6290  -11.7729    0.5090 H        1 ZINC000114904067    0.1700
73     H73    -6.2956  -10.8692    2.2478 H        1 ZINC000114904067    0.4300
74     H74    -2.8136   -8.0028    0.0661 H        1 ZINC000114904067    0.1500
75     H75    -1.0254   -5.5970   -0.2305 H        1 ZINC000114904067    0.1300
@<TRIPOS>BOND
1     1     2     1
2     1     42    1
3     1     43    1
4     1     44    1
5     2     3     1
6     2     4     1
7     2     5     1
8     4     45    1
9     4     46    1
10    4     47    1
11    5     6     1
12    5     48    1
13    5     49    1
14    6     7     1
15    6     8     1
16    6     9     1
17    7     50    1
18    7     51    1
19    7     52    1
20    8     53    1
21    8     54    1
22    8     55    1
23    9     10    1
24    9     56    1
25    9     57    1
26    10    11    1
27    11    41    ar
28    11    12    ar
29    12    13    ar
30    12    58    1
31    13    14    ar
32    13    59    1
33    14    40    ar
34    14    15    1
35    15    16    1
36    15    60    1
37    16    17    1
38    16    39    2
39    17    37    1
40    17    18    2
41    18    19    1
42    18    61    1
43    19    20    1
44    19    35    2
45    20    21    am
46    20    62    1
47    21    22    2
48    21    23    1
49    23    34    1
50    23    24    2
51    24    25    1
52    24    63    1
53    25    26    1
54    25    33    1
55    26    27    1
56    26    64    1
57    26    65    1
58    27    32    ar
59    27    28    ar
60    28    29    ar
61    28    66    1
62    29    30    ar
63    29    67    1
64    30    31    ar
65    30    68    1
66    31    32    ar
67    31    69    1
68    32    70    1
69    33    34    2
70    34    71    1
71    35    36    1
72    35    72    1
73    36    37    am
74    36    73    1
75    37    38    2
76    39    40    1
77    39    74    1
78    40    41    ar
79    41    75    1
@<TRIPOS>SUBSTRUCTURE
1   ZINC000114904067 1     RESIDUE    1   A     ZIN   1
