@<TRIPOS>MOLECULE
ZINC000005998597
  32   34    0    0    0
SMALL
NO_CHARGES
@<TRIPOS>ATOM
   1 C1            -1.5091    -0.0926    -0.0583 C.3     
   2 O2            -0.0830    -0.0020    -0.0552 O.3     
   3 C3             0.5817    -0.6897    -1.0229 C.2     
   4 C4             1.2764    -0.0224    -1.9849 C.2     
   5 C5             1.2926     1.4531    -1.9551 C.ar    
   6 C6             1.5633     2.1280    -0.7623 C.ar    
   7 C7             1.5772     3.5070    -0.7420 C.ar    
   8 C8             1.3237     4.2219    -1.8994 C.ar    
   9 C9             1.0548     3.5600    -3.0845 C.ar    
  10 C10            1.0428     2.1813    -3.1208 C.ar    
  11 O11            1.9485    -0.6571    -2.9604 O.3     
  12 C12            1.9823    -2.0027    -3.0561 C.ar    
  13 C13            2.6870    -2.6230    -4.0762 C.ar    
  14 C14            2.7124    -4.0065    -4.1606 C.ar    
  15 O15            3.4052    -4.6060    -5.1624 O.3     
  16 C16            2.0356    -4.7863    -3.2291 C.ar    
  17 C17            1.3273    -4.1865    -2.2045 C.ar    
  18 O18            0.6658    -4.9459    -1.2948 O.3     
  19 C19            1.2970    -2.7888    -2.1126 C.ar    
  20 C20            0.5613    -2.1102    -1.0343 C.2     
  21 O21           -0.0462    -2.7426    -0.1855 O.2     
  22 H22           -1.9003     0.3639    -0.9676 H       
  23 H23           -1.8067    -1.1405    -0.0208 H       
  24 H24           -1.9083     0.4298     0.8112 H       
  25 H25            1.7609     1.5712     0.1418 H       
  26 H26            1.7860     4.0301     0.1795 H       
  27 H27            1.3355     5.3016    -1.8776 H       
  28 H28            0.8578     4.1243    -3.9840 H       
  29 H29            0.8328     1.6660    -4.0464 H       
  30 H30            3.2162    -2.0281    -4.8058 H       
  31 H31            2.0631    -5.8632    -3.3065 H       
  32 H32            1.1956    -5.1842    -0.5217 H       
@<TRIPOS>BOND
   1    1    2 1
   2    1   22 1
   3    1   23 1
   4    1   24 1
   5    2    3 1
   6    3   20 1
   7    3    4 2
   8    4    5 1
   9    4   11 1
  10    5   10 ar
  11    5    6 ar
  12    6    7 ar
  13    6   25 1
  14    7    8 ar
  15    7   26 1
  16    8    9 ar
  17    8   27 1
  18    9   10 ar
  19    9   28 1
  20   10   29 1
  21   11   12 1
  22   12   19 ar
  23   12   13 ar
  24   13   14 ar
  25   13   30 1
  26   14   15 1
  27   14   16 ar
  28   16   17 ar
  29   16   31 1
  30   17   18 1
  31   17   19 ar
  32   18   32 1
  33   19   20 1
  34   20   21 2
