@<TRIPOS>MOLECULE
ZINC000062260316
60    65    1     0     0
SMALL
USER_CHARGES
@<TRIPOS>ATOM
1      C1      1.2478    0.6357   -0.9597 C.3      1 ZINC000062260316   -0.1200
2      C2      1.1969   -0.8596   -0.7792 C.ar     1 ZINC000062260316   -0.0600
3      C3      1.3111   -1.6924   -1.8748 C.ar     1 ZINC000062260316   -0.1100
4      C4      1.2639   -3.0648   -1.7099 C.ar     1 ZINC000062260316   -0.0900
5      C5      1.1028   -3.6073   -0.4485 C.ar     1 ZINC000062260316   -0.1100
6      C6      0.9879   -2.7796    0.6515 C.ar     1 ZINC000062260316   -0.0900
7      C7      1.0407   -1.4016    0.4900 C.ar     1 ZINC000062260316    0.0900
8      N8      0.9245   -0.5596    1.6032 N.am     1 ZINC000062260316   -0.4900
9      C9     -0.2981   -0.1330    1.9968 C.2      1 ZINC000062260316    0.5500
10     O10    -1.3061   -0.4666    1.4015 O.2      1 ZINC000062260316   -0.4900
11     C11    -0.3616    0.7485    3.1717 C.ar     1 ZINC000062260316   -0.2000
12     C12    -1.5703    1.2419    3.6579 C.ar     1 ZINC000062260316    0.0000
13     C13    -2.8662    0.8782    2.9801 C.3      1 ZINC000062260316   -0.1300
14     C14    -1.5723    2.0645    4.7634 C.ar     1 ZINC000062260316   -0.1400
15     C15    -0.3823    2.4036    5.3934 C.ar     1 ZINC000062260316   -0.0700
16     C16     0.8230    1.9270    4.9284 C.ar     1 ZINC000062260316   -0.1100
17     C17     0.8512    1.0915    3.8103 C.ar     1 ZINC000062260316    0.1600
18     N18     2.0160    0.5998    3.3187 N.2      1 ZINC000062260316   -0.4900
19     C19     2.0413   -0.1824    2.2826 C.2      1 ZINC000062260316    0.3800
20     C20     3.3768   -0.6862    1.7993 C.3      1 ZINC000062260316    0.2000
21     N21     4.4390   -0.1531    2.6560 N.pl3    1 ZINC000062260316   -0.3600
22     N22     5.1161    1.0532    2.4477 N.2      1 ZINC000062260316   -0.2200
23     C23     6.0048    1.2354    3.3955 C.2      1 ZINC000062260316    0.1700
24     C24     6.9215    2.3930    3.5289 C.ar     1 ZINC000062260316   -0.0100
25     C25     8.2674    2.1880    3.8287 C.ar     1 ZINC000062260316   -0.1200
26     C26     9.1189    3.2676    3.9524 C.ar     1 ZINC000062260316   -0.1000
27     C27     8.6409    4.5530    3.7797 C.ar     1 ZINC000062260316   -0.1300
28     C28     7.3018    4.7660    3.4814 C.ar     1 ZINC000062260316    0.1100
29     O29     6.8363    6.0317    3.3129 O.3      1 ZINC000062260316   -0.5000
30     C30     6.4416    3.6887    3.3493 C.ar     1 ZINC000062260316   -0.1100
31     C31     5.9238    0.0862    4.2967 C.ar     1 ZINC000062260316   -0.3200
32     C32     6.5908   -0.3057    5.4689 C.ar     1 ZINC000062260316    0.5200
33     N33     7.5829    0.4841    6.0169 N.pl3    1 ZINC000062260316   -0.8300
34     N34     6.2430   -1.4557    6.0384 N.ar     1 ZINC000062260316   -0.6000
35     C35     5.2947   -2.2149    5.5191 C.ar     1 ZINC000062260316    0.3900
36     N36     4.6440   -1.8890    4.4238 N.ar     1 ZINC000062260316   -0.5700
37     C37     4.9169   -0.7526    3.7832 C.ar     1 ZINC000062260316    0.3900
38     H38     2.2809    0.9755   -0.8865 H        1 ZINC000062260316    0.0800
39     H39     0.8479    0.8972   -1.9394 H        1 ZINC000062260316    0.0800
40     H40     0.6515    1.1159   -0.1839 H        1 ZINC000062260316    0.0600
41     H41     1.4370   -1.2716   -2.8614 H        1 ZINC000062260316    0.1300
42     H42     1.3527   -3.7140   -2.5684 H        1 ZINC000062260316    0.1300
43     H43     1.0663   -4.6794   -0.3230 H        1 ZINC000062260316    0.1300
44     H44     0.8617   -3.2040    1.6365 H        1 ZINC000062260316    0.1300
45     H45    -3.2096   -0.0888    3.3478 H        1 ZINC000062260316    0.0800
46     H46    -3.6166    1.6377    3.1995 H        1 ZINC000062260316    0.0700
47     H47    -2.7097    0.8225    1.9029 H        1 ZINC000062260316    0.0900
48     H48    -2.5074    2.4491    5.1428 H        1 ZINC000062260316    0.1400
49     H49    -0.4023    3.0496    6.2587 H        1 ZINC000062260316    0.1400
50     H50     1.7421    2.1976    5.4268 H        1 ZINC000062260316    0.1400
51     H51     3.3903   -1.7754    1.8391 H        1 ZINC000062260316    0.1300
52     H52     3.5391   -0.3581    0.7726 H        1 ZINC000062260316    0.1300
53     H53     8.6438    1.1848    3.9646 H        1 ZINC000062260316    0.1300
54     H54    10.1613    3.1074    4.1851 H        1 ZINC000062260316    0.1400
55     H55     9.3111    5.3942    3.8775 H        1 ZINC000062260316    0.1400
56     H56     6.8863    6.3511    2.4016 H        1 ZINC000062260316    0.4000
57     H57     5.3998    3.8530    3.1169 H        1 ZINC000062260316    0.1400
58     H58     7.6896    1.4024    5.7229 H        1 ZINC000062260316    0.4100
59     H59     8.1729    0.1205    6.6955 H        1 ZINC000062260316    0.4100
60     H60     5.0438   -3.1413    6.0142 H        1 ZINC000062260316    0.2000
@<TRIPOS>BOND
1     1     2     1
2     1     38    1
3     1     39    1
4     1     40    1
5     2     7     ar
6     2     3     ar
7     3     4     ar
8     3     41    1
9     4     5     ar
10    4     42    1
11    5     6     ar
12    5     43    1
13    6     7     ar
14    6     44    1
15    7     8     1
16    8     19    1
17    8     9     am
18    9     10    2
19    9     11    1
20    11    17    ar
21    11    12    ar
22    12    13    1
23    12    14    ar
24    13    45    1
25    13    46    1
26    13    47    1
27    14    15    ar
28    14    48    1
29    15    16    ar
30    15    49    1
31    16    17    ar
32    16    50    1
33    17    18    1
34    18    19    2
35    19    20    1
36    20    21    1
37    20    51    1
38    20    52    1
39    21    37    1
40    21    22    1
41    22    23    2
42    23    24    1
43    23    31    1
44    24    30    ar
45    24    25    ar
46    25    26    ar
47    25    53    1
48    26    27    ar
49    26    54    1
50    27    28    ar
51    27    55    1
52    28    29    1
53    28    30    ar
54    29    56    1
55    30    57    1
56    31    37    ar
57    31    32    ar
58    32    33    1
59    32    34    ar
60    33    58    1
61    33    59    1
62    34    35    ar
63    35    36    ar
64    35    60    1
65    36    37    ar
@<TRIPOS>SUBSTRUCTURE
1   ZINC000062260316 1     RESIDUE    1   A     ZIN   1
