@<TRIPOS>MOLECULE
ZINC000064521265
  46   49    0    0    0
SMALL
USER_CHARGES
NO_NAME
@<TRIPOS>ATOM
    1 C1        0.3471    -2.5632     0.7980 C.3    1 <0>      -0.1600
    2 C2       -0.3719    -2.4365    -0.5466 C.3    1 <0>       0.1600
    3 C3       -0.6883    -3.8316    -1.0891 C.3    1 <0>      -0.1600
    4 N4       -1.6186    -1.6888    -0.3651 N.pl3  1 <0>      -0.3700
    5 N5       -2.6721    -2.0658     0.4744 N.2    1 <0>      -0.2200
    6 C6       -3.6368    -1.1793     0.4054 C.2    1 <0>       0.1600
    7 C7       -4.9216    -1.2203     1.1444 C.ar   1 <0>      -0.0200
    8 C8       -6.1175    -0.9432     0.4822 C.ar   1 <0>      -0.0800
    9 C9       -7.3160    -0.9812     1.1682 C.ar   1 <0>      -0.1200
   10 C10      -7.3388    -1.2932     2.5125 C.ar   1 <0>      -0.0700
   11 C11      -6.1480    -1.5723     3.1875 C.ar   1 <0>      -0.1300
   12 C12      -6.1731    -1.9059     4.6272 C.2    1 <0>       0.5600
   13 O13      -5.1362    -2.1484     5.2128 O.2    1 <0>      -0.4600
   14 N14      -7.3458    -1.9412     5.2905 N.am   1 <0>      -0.6300
   15 C15      -7.3692    -2.2529     6.6358 C.2    1 <0>       0.4000
   16 N16      -6.3354    -2.5189     7.3479 N.2    1 <0>      -0.5200
   17 C17      -6.4884    -2.8317     8.7513 C.3    1 <0>       0.0500
   18 C18      -7.9655    -2.7877     9.1732 C.3    1 <0>      -0.1100
   19 S19      -8.8268    -2.3369     7.6321 S.3    1 <0>      -0.1900
   20 C20      -4.9369    -1.5409     2.4985 C.ar   1 <0>      -0.0200
   21 C21      -3.2110    -0.1431    -0.5350 C.ar   1 <0>      -0.3200
   22 C22      -3.7773     1.0436    -1.0287 C.ar   1 <0>       0.5200
   23 N23      -5.0294     1.4560    -0.6155 N.pl3  1 <0>      -0.8300
   24 N24      -3.0780     1.7603    -1.9032 N.ar   1 <0>      -0.6000
   25 C25      -1.8800     1.3710    -2.3015 C.ar   1 <0>       0.3900
   26 N26      -1.3106     0.2681    -1.8671 N.ar   1 <0>      -0.5700
   27 C27      -1.9297    -0.5145    -0.9837 C.ar   1 <0>       0.3800
   28 H28       1.2747    -3.1195     0.6630 H      1 <0>       0.0800
   29 H29       0.5726    -1.5693     1.1845 H      1 <0>       0.0600
   30 H30      -0.2936    -3.0910     1.5043 H      1 <0>       0.0700
   31 H31       0.2688    -1.9087    -1.2529 H      1 <0>       0.1100
   32 H32      -1.3291    -4.3595    -0.3828 H      1 <0>       0.0700
   33 H33      -1.2006    -3.7414    -2.0470 H      1 <0>       0.0600
   34 H34       0.2392    -4.3880    -1.2241 H      1 <0>       0.0800
   35 H35      -6.1065    -0.6980    -0.5696 H      1 <0>       0.1400
   36 H36      -8.2389    -0.7654     0.6506 H      1 <0>       0.1400
   37 H37      -8.2789    -1.3213     3.0435 H      1 <0>       0.1300
   38 H38      -8.1734    -1.7476     4.8230 H      1 <0>       0.4200
   39 H39      -6.0924    -3.8295     8.9402 H      1 <0>       0.1100
   40 H40      -5.9263    -2.1084     9.3420 H      1 <0>       0.1100
   41 H41      -8.2930    -3.7642     9.5298 H      1 <0>       0.1100
   42 H42      -8.1251    -2.0253     9.9357 H      1 <0>       0.1100
   43 H43      -4.0133    -1.7562     3.0152 H      1 <0>       0.1500
   44 H44      -5.4311     1.0670     0.1771 H      1 <0>       0.4100
   45 H45      -5.5068     2.1346    -1.1180 H      1 <0>       0.4100
   46 H46      -1.3466     1.9835    -3.0134 H      1 <0>       0.2100
@<TRIPOS>BOND
   1    1    2 1
   2    1   28 1
   3    1   29 1
   4    1   30 1
   5    2    3 1
   6    2    4 1
   7    2   31 1
   8    3   32 1
   9    3   33 1
  10    3   34 1
  11    4   27 1
  12    4    5 1
  13    5    6 2
  14    6    7 1
  15    6   21 1
  16    7   20 ar
  17    7    8 ar
  18    8    9 ar
  19    8   35 1
  20    9   10 ar
  21    9   36 1
  22   10   11 ar
  23   10   37 1
  24   11   12 1
  25   11   20 ar
  26   12   13 2
  27   12   14 am
  28   14   15 1
  29   14   38 1
  30   15   19 1
  31   15   16 2
  32   16   17 1
  33   17   18 1
  34   17   39 1
  35   17   40 1
  36   18   19 1
  37   18   41 1
  38   18   42 1
  39   20   43 1
  40   21   27 ar
  41   21   22 ar
  42   22   23 1
  43   22   24 ar
  44   23   44 1
  45   23   45 1
  46   24   25 ar
  47   25   26 ar
  48   25   46 1
  49   26   27 ar
