@<TRIPOS>MOLECULE
ZINC000090609740
44    46    1     0     0
SMALL
USER_CHARGES
@<TRIPOS>ATOM
1      C1     -0.0173    1.4248    0.0099 C.3      1 ZINC000090609740    0.0200
2      O2      0.0021   -0.0041    0.0020 O.3      1 ZINC000090609740   -0.3100
3      C3      0.6060   -0.6074   -1.0562 C.ar     1 ZINC000090609740    0.1600
4      C4      1.1751    0.1754   -2.0664 C.ar     1 ZINC000090609740   -0.1800
5      C5      1.7854   -0.3967   -3.1370 C.ar     1 ZINC000090609740   -0.0400
6      C6      1.8523   -1.8013   -3.2408 C.ar     1 ZINC000090609740    0.1100
7      N7      2.4492   -2.3717   -4.2867 N.ar     1 ZINC000090609740   -0.4100
8      C8      2.5304   -3.6954   -4.4163 C.ar     1 ZINC000090609740    0.1100
9      C9      3.1700   -4.2639   -5.5369 C.ar     1 ZINC000090609740   -0.0400
10     C10     3.2479   -5.6147   -5.6598 C.ar     1 ZINC000090609740   -0.1800
11     C11     2.7018   -6.4608   -4.6888 C.ar     1 ZINC000090609740    0.1600
12     O12     2.7968   -7.8085   -4.8411 O.3      1 ZINC000090609740   -0.3100
13     C13     3.4648   -8.2836   -6.0117 C.3      1 ZINC000090609740    0.0200
14     C14     2.0748   -5.9483   -3.5899 C.ar     1 ZINC000090609740   -0.1800
15     C15     1.9768   -4.5558   -3.4319 C.ar     1 ZINC000090609740    0.0000
16     C16     1.3355   -3.9990   -2.3070 C.ar     1 ZINC000090609740   -0.1100
17     S17     0.6336   -5.0252   -1.0585 S.3      1 ZINC000090609740   -0.0800
18     C18     2.0588   -5.1989    0.0436 C.3      1 ZINC000090609740   -0.1200
19     C19     1.6766   -6.0765    1.2371 C.3      1 ZINC000090609740   -0.1400
20     C20     2.8814   -6.2234    2.1687 C.3      1 ZINC000090609740    0.0000
21     N21     2.5144   -7.0660    3.3147 N.4      1 ZINC000090609740   -0.6400
22     H22     1.7514   -6.6373    3.8167 H        1 ZINC000090609740    0.4400
23     H23     2.2309   -7.9767    2.9854 H        1 ZINC000090609740    0.4400
24     H24     3.3090   -7.1629    3.9290 H        1 ZINC000090609740    0.4400
25     C25     1.2745   -2.5940   -2.2143 C.ar     1 ZINC000090609740    0.0000
26     C26     0.6554   -1.9701   -1.1183 C.ar     1 ZINC000090609740   -0.1800
27     H27     1.0053    1.8021    0.0021 H        1 ZINC000090609740    0.0600
28     H28    -0.5445    1.7859   -0.8732 H        1 ZINC000090609740    0.0600
29     H29    -0.5275    1.7763    0.9067 H        1 ZINC000090609740    0.1100
30     H30     1.1281    1.2519   -1.9943 H        1 ZINC000090609740    0.1400
31     H31     2.2186    0.2236   -3.9077 H        1 ZINC000090609740    0.1500
32     H32     3.5971   -3.6263   -6.2969 H        1 ZINC000090609740    0.1500
33     H33     3.7392   -6.0423   -6.5214 H        1 ZINC000090609740    0.1400
34     H34     2.9428   -7.9247   -6.8988 H        1 ZINC000090609740    0.0600
35     H35     4.4905   -7.9148   -6.0197 H        1 ZINC000090609740    0.0600
36     H36     3.4705   -9.3735   -6.0096 H        1 ZINC000090609740    0.1100
37     H37     1.6561   -6.6099   -2.8461 H        1 ZINC000090609740    0.1500
38     H38     2.8831   -5.6621   -0.4988 H        1 ZINC000090609740    0.1000
39     H39     2.3652   -4.2152    0.3992 H        1 ZINC000090609740    0.1000
40     H40     0.8524   -5.6134    1.7795 H        1 ZINC000090609740    0.1000
41     H41     1.3703   -7.0603    0.8815 H        1 ZINC000090609740    0.1000
42     H42     3.7057   -6.6866    1.6264 H        1 ZINC000090609740    0.1400
43     H43     3.1878   -5.2397    2.5244 H        1 ZINC000090609740    0.1400
44     H44     0.2173   -2.5655   -0.3310 H        1 ZINC000090609740    0.1500
@<TRIPOS>BOND
1     1     2     1
2     1     27    1
3     1     28    1
4     1     29    1
5     2     3     1
6     3     26    ar
7     3     4     ar
8     4     5     ar
9     4     30    1
10    5     6     ar
11    5     31    1
12    6     25    ar
13    6     7     ar
14    7     8     ar
15    8     15    ar
16    8     9     ar
17    9     10    ar
18    9     32    1
19    10    11    ar
20    10    33    1
21    11    12    1
22    11    14    ar
23    12    13    1
24    13    34    1
25    13    35    1
26    13    36    1
27    14    15    ar
28    14    37    1
29    15    16    ar
30    16    17    1
31    16    25    ar
32    17    18    1
33    18    19    1
34    18    38    1
35    18    39    1
36    19    20    1
37    19    40    1
38    19    41    1
39    20    21    1
40    20    42    1
41    20    43    1
42    21    22    1
43    21    23    1
44    21    24    1
45    25    26    ar
46    26    44    1
@<TRIPOS>SUBSTRUCTURE
1   ZINC000090609740 1     RESIDUE    1   A     ZIN   1
