@<TRIPOS>MOLECULE
ZINC000000393138
31    33    1     0     0
SMALL
USER_CHARGES
@<TRIPOS>ATOM
1      O1      0.0021   -0.0041    0.0020 O.co2    1 ZINC000000393138   -0.7000
2      C2     -0.0145    1.2150    0.0087 C.2      1 ZINC000000393138    0.4900
3      O3      1.0330    1.8389    0.0021 O.co2    1 ZINC000000393138   -0.7000
4      C4     -1.3296    1.9507    0.0190 C.3      1 ZINC000000393138   -0.1700
5      C5     -2.4790    0.9408    0.0189 C.3      1 ZINC000000393138   -0.1400
6      C6     -3.7941    1.6764    0.0292 C.2      1 ZINC000000393138    0.3900
7      O7     -3.8106    2.8893    0.0358 O.2      1 ZINC000000393138   -0.4600
8      C8     -5.0556    0.9251    0.0311 C.ar     1 ZINC000000393138   -0.1600
9      C9     -6.2717    1.6030    0.0348 C.ar     1 ZINC000000393138   -0.0200
10     C10    -7.4768    0.8847    0.0371 C.ar     1 ZINC000000393138   -0.0800
11     C11    -7.4418   -0.5059    0.0352 C.ar     1 ZINC000000393138   -0.1000
12     C12    -6.2062   -1.1746    0.0314 C.ar     1 ZINC000000393138   -0.1000
13     C13    -5.0387   -0.4786    0.0233 C.ar     1 ZINC000000393138   -0.0500
14     S14    -9.0701   -1.1658    0.0388 S.3      1 ZINC000000393138    0.0900
15     C15    -9.8162    0.4241    0.0428 C.ar     1 ZINC000000393138   -0.1300
16     C16    -8.8514    1.4204    0.0415 C.ar     1 ZINC000000393138   -0.0500
17     C17    -9.2550    2.7694    0.0439 C.ar     1 ZINC000000393138   -0.0800
18     C18   -10.5893    3.0949    0.0479 C.ar     1 ZINC000000393138   -0.1200
19     C19   -11.5509    2.0960    0.0493 C.ar     1 ZINC000000393138   -0.1000
20     C20   -11.1729    0.7739    0.0474 C.ar     1 ZINC000000393138   -0.0800
21     H21    -1.3917    2.5717    0.9126 H        1 ZINC000000393138    0.0600
22     H22    -1.4001    2.5813   -0.8673 H        1 ZINC000000393138    0.0600
23     H23    -2.4169    0.3198   -0.8748 H        1 ZINC000000393138    0.1000
24     H24    -2.4085    0.3101    0.9052 H        1 ZINC000000393138    0.1000
25     H25    -6.2874    2.6828    0.0362 H        1 ZINC000000393138    0.1400
26     H26    -6.1838   -2.2544    0.0303 H        1 ZINC000000393138    0.1400
27     H27    -4.0965   -1.0064    0.0201 H        1 ZINC000000393138    0.1500
28     H28    -8.5112    3.5525    0.0428 H        1 ZINC000000393138    0.1300
29     H29   -10.8905    4.1321    0.0505 H        1 ZINC000000393138    0.1300
30     H30   -12.5989    2.3568    0.0525 H        1 ZINC000000393138    0.1300
31     H31   -11.9265    0.0002    0.0481 H        1 ZINC000000393138    0.1300
@<TRIPOS>BOND
1     1     2     ar
2     2     3     ar
3     2     4     1
4     4     5     1
5     4     21    1
6     4     22    1
7     5     6     1
8     5     23    1
9     5     24    1
10    6     7     2
11    6     8     1
12    8     13    ar
13    8     9     ar
14    9     10    ar
15    9     25    1
16    10    16    1
17    10    11    ar
18    11    12    ar
19    11    14    1
20    12    13    ar
21    12    26    1
22    13    27    1
23    14    15    1
24    15    20    ar
25    15    16    ar
26    16    17    ar
27    17    18    ar
28    17    28    1
29    18    19    ar
30    18    29    1
31    19    20    ar
32    19    30    1
33    20    31    1
@<TRIPOS>SUBSTRUCTURE
1   ZINC000000393138 1     RESIDUE    1   A     ZIN   1
