@<TRIPOS>MOLECULE
ZINC000147255349
  47   51    0    0    0
SMALL
USER_CHARGES
NO_NAME
@<TRIPOS>ATOM
    1 C1       -0.7891     1.1660    -0.2876 C.3    1 <0>       0.0300
    2 O2       -0.0228    -0.0078    -0.0101 O.3    1 <0>      -0.3100
    3 C3        0.5884    -0.6105    -1.0660 C.ar   1 <0>       0.0800
    4 C4        0.4568    -0.0788    -2.3382 C.ar   1 <0>      -0.1500
    5 C5        1.0770    -0.6898    -3.4119 C.ar   1 <0>      -0.1100
    6 C6        1.8333    -1.8378    -3.2174 C.ar   1 <0>       0.1600
    7 N7        2.4606    -2.4552    -4.3055 N.pl3  1 <0>      -0.6300
    8 C8        2.9340    -1.6888    -5.3589 C.2    1 <0>       0.4800
    9 N9        2.8938    -0.3744    -5.2907 N.2    1 <0>      -0.5300
   10 C10       3.3474     0.3889    -6.3005 C.2    1 <0>       0.1800
   11 C11       3.2844     1.8659    -6.1836 C.ar   1 <0>      -0.0900
   12 C12       2.7668     2.4313    -5.0387 C.ar   1 <0>       0.0200
   13 C13       2.7074     3.8350    -4.9274 C.ar   1 <0>      -0.2200
   14 C14       2.2653     4.7159    -3.9565 C.2    1 <0>       0.1000
   15 N15       2.4607     5.9612    -4.4114 N.pl3  1 <0>      -0.4200
   16 N16       3.0338     5.9194    -5.6873 N.2    1 <0>      -0.3000
   17 C17       3.2020     4.6585    -6.0421 C.ar   1 <0>       0.1100
   18 C18       3.7204     4.0144    -7.1876 C.ar   1 <0>      -0.1000
   19 C19       3.7598     2.6627    -7.2418 C.ar   1 <0>      -0.0600
   20 C20       3.8633    -0.1712    -7.4268 C.2    1 <0>      -0.0600
   21 N21       3.9254    -1.5340    -7.5425 N.pl3  1 <0>      -0.3200
   22 C22       4.3734    -2.3730    -8.5160 C.2    1 <0>      -0.0600
   23 C23       4.1802    -3.6379    -8.0720 C.2    1 <0>       0.0200
   24 N24       3.6288    -3.5824    -6.8591 N.2    1 <0>      -0.4600
   25 C25       3.4693    -2.3168    -6.5126 C.2    1 <0>       0.1300
   26 C26       1.9676    -2.3731    -1.9429 C.ar   1 <0>      -0.2000
   27 C27       1.3506    -1.7580    -0.8667 C.ar   1 <0>       0.1200
   28 O28       1.4807    -2.2804     0.3821 O.3    1 <0>      -0.3000
   29 C29       2.2684    -3.4656     0.5108 C.3    1 <0>       0.0200
   30 H30      -0.1427     1.9268    -0.7252 H      1 <0>       0.0500
   31 H31      -1.5878     0.9214    -0.9878 H      1 <0>       0.0500
   32 H32      -1.2212     1.5452     0.6384 H      1 <0>       0.1000
   33 H33      -0.1314     0.8139    -2.4915 H      1 <0>       0.1400
   34 H34       0.9729    -0.2739    -4.4032 H      1 <0>       0.1400
   35 H35       2.5641    -3.4195    -4.3224 H      1 <0>       0.4300
   36 H36       2.4098     1.8050    -4.2345 H      1 <0>       0.1400
   37 H37       1.8381     4.4476    -3.0015 H      1 <0>       0.1900
   38 H38       2.2373     6.7719    -3.9278 H      1 <0>       0.4500
   39 H39       4.0886     4.5999    -8.0170 H      1 <0>       0.1300
   40 H40       4.1589     2.1831    -8.1233 H      1 <0>       0.1300
   41 H41       4.2228     0.4571    -8.2283 H      1 <0>       0.1700
   42 H42       4.8022    -2.0845    -9.4643 H      1 <0>       0.1900
   43 H43       4.4307    -4.5402    -8.6101 H      1 <0>       0.1900
   44 H44       2.5557    -3.2661    -1.7908 H      1 <0>       0.1400
   45 H45       2.2903    -3.7757     1.5556 H      1 <0>       0.1000
   46 H46       1.8316    -4.2597    -0.0947 H      1 <0>       0.0600
   47 H47       3.2842    -3.2656     0.1698 H      1 <0>       0.0600
@<TRIPOS>BOND
   1    1    2 1
   2    1   30 1
   3    1   31 1
   4    1   32 1
   5    2    3 1
   6    3   27 ar
   7    3    4 ar
   8    4    5 ar
   9    4   33 1
  10    5    6 ar
  11    5   34 1
  12    6    7 1
  13    6   26 ar
  14    7    8 1
  15    7   35 1
  16    8   25 1
  17    8    9 2
  18    9   10 1
  19   10   11 1
  20   10   20 2
  21   11   19 ar
  22   11   12 ar
  23   12   13 ar
  24   12   36 1
  25   13   17 ar
  26   13   14 2
  27   14   15 1
  28   14   37 1
  29   15   16 1
  30   15   38 1
  31   16   17 2
  32   17   18 ar
  33   18   19 ar
  34   18   39 1
  35   19   40 1
  36   20   21 1
  37   20   41 1
  38   21   25 1
  39   21   22 1
  40   22   23 2
  41   22   42 1
  42   23   24 1
  43   23   43 1
  44   24   25 2
  45   26   27 ar
  46   26   44 1
  47   27   28 1
  48   28   29 1
  49   29   45 1
  50   29   46 1
  51   29   47 1
