@<TRIPOS>MOLECULE
ZINC000029042442
60    63    1     0     0
SMALL
USER_CHARGES
@<TRIPOS>ATOM
1      C1     -0.0184    1.5028    0.0103 C.3      1 ZINC000029042442   -0.1200
2      C2      0.0021   -0.0041    0.0020 C.ar     1 ZINC000029042442   -0.0500
3      C3      0.0058   -0.6880   -1.1996 C.ar     1 ZINC000029042442   -0.1300
4      C4      0.0250   -2.0709   -1.2117 C.ar     1 ZINC000029042442   -0.0900
5      C5      0.0400   -2.7732   -0.0230 C.ar     1 ZINC000029042442   -0.1700
6      C6      0.0364   -2.0891    1.1863 C.ar     1 ZINC000029042442    0.0900
7      N7      0.0520   -2.7963    2.3906 N.3      1 ZINC000029042442   -0.4800
8      C8     -1.0907   -2.4225    3.2359 C.3      1 ZINC000029042442    0.0300
9      C9     -1.0042   -3.1731    4.5666 C.3      1 ZINC000029042442   -0.0100
10     N10    -1.0125   -4.6201    4.3142 N.4      1 ZINC000029042442   -0.3800
11     H11    -1.8608   -4.8719    3.8295 H        1 ZINC000029042442    0.4200
12     C12    -0.9473   -5.3403    5.5929 C.3      1 ZINC000029042442   -0.0100
13     C13    -2.2172   -5.0627    6.3999 C.3      1 ZINC000029042442   -0.1600
14     C14    -2.1493   -5.8128    7.7316 C.3      1 ZINC000029042442    0.1200
15     N15    -3.3652   -5.5471    8.5043 N.am     1 ZINC000029042442   -0.7200
16     C16    -3.5271   -6.1066    9.7197 C.2      1 ZINC000029042442    0.6300
17     O17    -2.6646   -6.8314   10.1745 O.2      1 ZINC000029042442   -0.4600
18     C18    -4.7578   -5.8377   10.5018 C.2      1 ZINC000029042442    0.1300
19     N19    -5.0456   -6.3092   11.6967 N.2      1 ZINC000029042442   -0.4000
20     C20    -6.2558   -5.8007   12.0048 C.2      1 ZINC000029042442    0.2300
21     C21    -7.0173   -6.0396   13.2566 C.ar     1 ZINC000029042442   -0.0900
22     C22    -8.2706   -5.4528   13.4479 C.ar     1 ZINC000029042442   -0.0300
23     C23    -8.9409   -5.7071   14.6326 C.ar     1 ZINC000029042442   -0.1700
24     C24    -8.3537   -6.5260   15.5794 C.ar     1 ZINC000029042442    0.1300
25     N25    -7.1684   -7.0660   15.3702 N.ar     1 ZINC000029042442   -0.4800
26     C26    -6.4961   -6.8571   14.2569 C.ar     1 ZINC000029042442    0.1500
27     N27    -6.6353   -5.0575   10.9964 N.2      1 ZINC000029042442   -0.3500
28     O28    -5.7876   -5.0627   10.1289 O.3      1 ZINC000029042442    0.1100
29     C29     0.1480   -4.9816    3.4895 C.3      1 ZINC000029042442    0.0300
30     H30     0.1479   -6.0574    3.3139 H        1 ZINC000029042442    0.1500
31     C31     1.4341   -4.5838    4.2166 C.3      1 ZINC000029042442   -0.1800
32     C32     0.0711   -4.2461    2.1499 C.3      1 ZINC000029042442    0.0300
33     C33     0.0229   -0.7003    1.1948 C.ar     1 ZINC000029042442   -0.1300
34     H34     1.0042    1.8801    0.0026 H        1 ZINC000029042442    0.0800
35     H35    -0.5455    1.8639   -0.8728 H        1 ZINC000029042442    0.0700
36     H36    -0.5286    1.8543    0.9071 H        1 ZINC000029042442    0.0700
37     H37    -0.0067   -0.1412   -2.1308 H        1 ZINC000029042442    0.1300
38     H38     0.0278   -2.6021   -2.1521 H        1 ZINC000029042442    0.1300
39     H39     0.0543   -3.8530   -0.0331 H        1 ZINC000029042442    0.1300
40     H40    -1.0696   -1.3487    3.4219 H        1 ZINC000029042442    0.1300
41     H41    -2.0193   -2.6860    2.7294 H        1 ZINC000029042442    0.0700
42     H42    -0.0821   -2.8989    5.0790 H        1 ZINC000029042442    0.1400
43     H43    -1.8586   -2.9081    5.1894 H        1 ZINC000029042442    0.1400
44     H44    -0.8638   -6.4104    5.4033 H        1 ZINC000029042442    0.1400
45     H45    -0.0776   -5.0022    6.1563 H        1 ZINC000029042442    0.1400
46     H46    -2.3006   -3.9926    6.5894 H        1 ZINC000029042442    0.1000
47     H47    -3.0868   -5.4008    5.8364 H        1 ZINC000029042442    0.1000
48     H48    -2.0658   -6.8830    7.5421 H        1 ZINC000029042442    0.0900
49     H49    -1.2796   -5.4748    8.2951 H        1 ZINC000029042442    0.0900
50     H50    -4.0538   -4.9684    8.1412 H        1 ZINC000029042442    0.4100
51     H51    -8.7056   -4.8168   12.6912 H        1 ZINC000029042442    0.1400
52     H52    -9.9116   -5.2703   14.8151 H        1 ZINC000029042442    0.1500
53     H53    -8.8733   -6.7263   16.5047 H        1 ZINC000029042442    0.1700
54     H54    -5.5283   -7.3170   14.1220 H        1 ZINC000029042442    0.1700
55     H55     1.4890   -5.1078    5.1708 H        1 ZINC000029042442    0.0800
56     H56     2.2953   -4.8521    3.6047 H        1 ZINC000029042442    0.1000
57     H57     1.4342   -3.5081    4.3923 H        1 ZINC000029042442    0.0900
58     H58    -0.8383   -4.5396    1.6255 H        1 ZINC000029042442    0.0700
59     H59     0.9398   -4.5027    1.5436 H        1 ZINC000029042442    0.1300
60     H60     0.0200   -0.1654    2.1331 H        1 ZINC000029042442    0.1300
@<TRIPOS>BOND
1     1     2     1
2     1     34    1
3     1     35    1
4     1     36    1
5     2     33    ar
6     2     3     ar
7     3     4     ar
8     3     37    1
9     4     5     ar
10    4     38    1
11    5     6     ar
12    5     39    1
13    6     7     1
14    6     33    ar
15    7     32    1
16    7     8     1
17    8     9     1
18    8     40    1
19    8     41    1
20    9     10    1
21    9     42    1
22    9     43    1
23    10    11    1
24    10    12    1
25    10    29    1
26    12    13    1
27    12    44    1
28    12    45    1
29    13    14    1
30    13    46    1
31    13    47    1
32    14    15    1
33    14    48    1
34    14    49    1
35    15    16    am
36    15    50    1
37    16    17    2
38    16    18    1
39    18    28    1
40    18    19    2
41    19    20    1
42    20    21    1
43    20    27    2
44    21    26    ar
45    21    22    ar
46    22    23    ar
47    22    51    1
48    23    24    ar
49    23    52    1
50    24    25    ar
51    24    53    1
52    25    26    ar
53    26    54    1
54    27    28    1
55    29    30    1
56    29    31    1
57    29    32    1
58    31    55    1
59    31    56    1
60    31    57    1
61    32    58    1
62    32    59    1
63    33    60    1
@<TRIPOS>SUBSTRUCTURE
1   ZINC000029042442 1     RESIDUE    1   A     ZIN   1
