@<TRIPOS>MOLECULE
ZINC000144511144
64    69    1     0     0
SMALL
USER_CHARGES
@<TRIPOS>ATOM
1      C1      2.5077   -1.2614    4.2639 C.3      1 ZINC000144511144   -0.1400
2      C2      1.7533   -1.8896    3.0904 C.3      1 ZINC000144511144   -0.1000
3      C3      1.3542   -0.7966    2.0969 C.3      1 ZINC000144511144   -0.1200
4      C4      0.5998   -1.4248    0.9234 C.3      1 ZINC000144511144   -0.1200
5      C5      1.5013   -2.4446    0.2248 C.3      1 ZINC000144511144    0.1400
6      N6      2.7049   -1.7730   -0.2718 N.pl3    1 ZINC000144511144   -0.4600
7      C7      3.7913   -2.4168   -0.8384 C.ar     1 ZINC000144511144    0.0800
8      C8      4.7453   -1.4453   -1.1905 C.ar     1 ZINC000144511144   -0.0400
9      C9      5.9371   -1.8595   -1.7840 C.ar     1 ZINC000144511144   -0.1200
10     C10     6.1356   -3.2061   -2.0034 C.ar     1 ZINC000144511144    0.0700
11     N11     5.2188   -4.0938   -1.6607 N.ar     1 ZINC000144511144   -0.4600
12     C12     4.0780   -3.7507   -1.0981 C.ar     1 ZINC000144511144    0.1100
13     C13     4.1775   -0.1475   -0.8034 C.ar     1 ZINC000144511144   -0.2600
14     C14     2.9114   -0.4160   -0.2461 C.ar     1 ZINC000144511144    0.4300
15     N15     2.1808    0.6066    0.1891 N.ar     1 ZINC000144511144   -0.5600
16     C16     2.6353    1.8456    0.0992 C.ar     1 ZINC000144511144    0.5900
17     N17     1.8436    2.8833    0.5639 N.pl3    1 ZINC000144511144   -0.6100
18     C18     2.3410    4.1834    0.5834 C.ar     1 ZINC000144511144    0.3800
19     C19     3.7139    4.3981    0.5265 C.ar     1 ZINC000144511144   -0.1800
20     C20     4.1845    5.6968    0.5527 C.ar     1 ZINC000144511144   -0.0500
21     C21     3.2696    6.7438    0.6355 C.ar     1 ZINC000144511144   -0.1800
22     C22     3.8087    8.1500    0.6898 C.3      1 ZINC000144511144    0.1600
23     N23     2.7101    9.1069    0.5175 N.am     1 ZINC000144511144   -0.6200
24     C24     2.8329   10.1774   -0.2922 C.2      1 ZINC000144511144    0.5200
25     O25     1.9088   10.9529   -0.4164 O.2      1 ZINC000144511144   -0.5100
26     C26     4.1185   10.4106   -1.0431 C.3      1 ZINC000144511144    0.0600
27     O27     4.0030   11.5995   -1.8275 O.3      1 ZINC000144511144   -0.5500
28     C28     1.4678    8.8501    1.2647 C.3      1 ZINC000144511144    0.1200
29     C29     0.8715    7.5408    0.7508 C.3      1 ZINC000144511144   -0.0900
30     C30     1.9236    6.4642    0.6788 C.ar     1 ZINC000144511144    0.1800
31     N31     1.5057    5.2037    0.6504 N.ar     1 ZINC000144511144   -0.5200
32     N32     3.8230    2.1296   -0.4202 N.ar     1 ZINC000144511144   -0.5700
33     C33     4.6116    1.1725   -0.8799 C.ar     1 ZINC000144511144    0.2500
34     C34     1.9004   -3.5376    1.2183 C.3      1 ZINC000144511144   -0.1400
35     C35     2.6548   -2.9094    2.3918 C.3      1 ZINC000144511144   -0.1100
36     H36     3.4455   -0.8359    3.9069 H        1 ZINC000144511144    0.0500
37     H37     1.8979   -0.4750    4.7087 H        1 ZINC000144511144    0.0500
38     H38     2.7171   -2.0259    5.0122 H        1 ZINC000144511144    0.0500
39     H39     0.8578   -2.3893    3.4599 H        1 ZINC000144511144    0.0700
40     H40     0.7119   -0.0701    2.5947 H        1 ZINC000144511144    0.0600
41     H41     2.2497   -0.2969    1.7274 H        1 ZINC000144511144    0.0900
42     H42    -0.2957   -1.9245    1.2929 H        1 ZINC000144511144    0.0800
43     H43     0.3155   -0.6461    0.2157 H        1 ZINC000144511144    0.0900
44     H44     0.9638   -2.8921   -0.6112 H        1 ZINC000144511144    0.0900
45     H45     6.6903   -1.1390   -2.0668 H        1 ZINC000144511144    0.1400
46     H46     7.0542   -3.5404   -2.4627 H        1 ZINC000144511144    0.1600
47     H47     3.3599   -4.5135   -0.8356 H        1 ZINC000144511144    0.1600
48     H48     0.9428    2.7040    0.8757 H        1 ZINC000144511144    0.4300
49     H49     4.3990    3.5657    0.4633 H        1 ZINC000144511144    0.1800
50     H50     5.2449    5.8970    0.5100 H        1 ZINC000144511144    0.1400
51     H51     4.2881    8.3178    1.6543 H        1 ZINC000144511144    0.0900
52     H52     4.5395    8.2894   -0.1069 H        1 ZINC000144511144    0.0900
53     H53     4.9386   10.5215   -0.3338 H        1 ZINC000144511144    0.0800
54     H54     4.3163    9.5614   -1.6973 H        1 ZINC000144511144    0.0800
55     H55     4.7958   11.8118   -2.3388 H        1 ZINC000144511144    0.3900
56     H56     1.6889    8.7620    2.3284 H        1 ZINC000144511144    0.0800
57     H57     0.7634    9.6656    1.1002 H        1 ZINC000144511144    0.1100
58     H58     0.0762    7.2205    1.4239 H        1 ZINC000144511144    0.1000
59     H59     0.4552    7.7024   -0.2435 H        1 ZINC000144511144    0.0900
60     H60     5.5771    1.4104   -1.3013 H        1 ZINC000144511144    0.1800
61     H61     1.0049   -4.0373    1.5877 H        1 ZINC000144511144    0.0900
62     H62     2.5427   -4.2641    0.7205 H        1 ZINC000144511144    0.0700
63     H63     3.5503   -2.4097    2.0223 H        1 ZINC000144511144    0.0600
64     H64     2.9391   -3.6881    3.0995 H        1 ZINC000144511144    0.0700
@<TRIPOS>BOND
1     1     2     1
2     1     36    1
3     1     37    1
4     1     38    1
5     2     35    1
6     2     3     1
7     2     39    1
8     3     4     1
9     3     40    1
10    3     41    1
11    4     5     1
12    4     42    1
13    4     43    1
14    5     6     1
15    5     34    1
16    5     44    1
17    6     14    1
18    6     7     1
19    7     12    ar
20    7     8     ar
21    8     9     ar
22    8     13    1
23    9     10    ar
24    9     45    1
25    10    11    ar
26    10    46    1
27    11    12    ar
28    12    47    1
29    13    33    ar
30    13    14    ar
31    14    15    ar
32    15    16    ar
33    16    17    1
34    16    32    ar
35    17    18    1
36    17    48    1
37    18    31    ar
38    18    19    ar
39    19    20    ar
40    19    49    1
41    20    21    ar
42    20    50    1
43    21    30    ar
44    21    22    1
45    22    23    1
46    22    51    1
47    22    52    1
48    23    24    am
49    23    28    1
50    24    25    2
51    24    26    1
52    26    27    1
53    26    53    1
54    26    54    1
55    27    55    1
56    28    29    1
57    28    56    1
58    28    57    1
59    29    30    1
60    29    58    1
61    29    59    1
62    30    31    ar
63    32    33    ar
64    33    60    1
65    34    35    1
66    34    61    1
67    34    62    1
68    35    63    1
69    35    64    1
@<TRIPOS>SUBSTRUCTURE
1   ZINC000144511144 1     RESIDUE    1   A     ZIN   1
