@<TRIPOS>MOLECULE
ZINC000040867011
  46   49    0    0    0
SMALL
USER_CHARGES
NO_NAME
@<TRIPOS>ATOM
    1 C1       -0.0187     1.5258     0.0104 C.3    1 <0>      -0.1700
    2 C2        0.0021    -0.0041     0.0020 C.3    1 <0>       0.1100
    3 C3        0.7182    -0.4975    -1.2568 C.3    1 <0>      -0.1700
    4 N4        0.7106    -0.4894     1.1889 N.am   1 <0>      -0.5300
    5 C5        2.0064    -0.1367     1.3904 C.2    1 <0>       0.3800
    6 N6        2.7001    -0.5264     2.4177 N.2    1 <0>      -0.5200
    7 C7        2.1657    -1.3253     3.3729 C.ar   1 <0>       0.1900
    8 C8        2.9114    -1.7463     4.4814 C.ar   1 <0>      -0.1000
    9 C9        2.3548    -2.5450     5.4244 C.ar   1 <0>      -0.0100
   10 C10       1.0082    -2.9816     5.3254 C.ar   1 <0>       0.0700
   11 N11       0.3244    -3.7631     6.1644 N.2    1 <0>      -0.4400
   12 C12      -0.9026    -4.0389     5.8794 C.2    1 <0>       0.1100
   13 C13      -1.7922    -4.8858     6.7018 C.2    1 <0>       0.4900
   14 N14      -3.0197    -5.1019     6.3224 N.2    1 <0>      -0.7400
   15 N15      -1.3227    -5.4473     7.8708 N.pl3  1 <0>      -0.7400
   16 C16      -2.2044    -6.2867     8.6859 C.3    1 <0>       0.1600
   17 C17      -1.4546    -6.7724     9.8996 C.ar   1 <0>      -0.1100
   18 C18      -0.7479    -7.9593     9.8462 C.ar   1 <0>      -0.1000
   19 C19      -0.0601    -8.4048    10.9595 C.ar   1 <0>      -0.1200
   20 C20      -0.0787    -7.6633    12.1260 C.ar   1 <0>      -0.1100
   21 C21      -0.7846    -6.4760    12.1790 C.ar   1 <0>      -0.1200
   22 C22      -1.4689    -6.0283    11.0645 C.ar   1 <0>      -0.1000
   23 S23      -1.3650    -3.2615     4.3713 S.3    1 <0>       0.2500
   24 C24       0.2485    -2.5698     4.2231 C.ar   1 <0>      -0.1300
   25 C25       0.8249    -1.7413     3.2456 C.ar   1 <0>      -0.1600
   26 C26       0.0665    -1.2808     2.0780 C.2    1 <0>       0.5400
   27 O27      -1.0967    -1.6015     1.9126 O.2    1 <0>      -0.5000
   28 H28       1.0039     1.9031     0.0027 H      1 <0>       0.0700
   29 H29      -0.5459     1.8868    -0.8726 H      1 <0>       0.0800
   30 H30      -0.5289     1.8773     0.9072 H      1 <0>       0.0600
   31 H31      -1.0205    -0.3814     0.0098 H      1 <0>       0.1200
   32 H32       1.7408    -0.1202    -1.2645 H      1 <0>       0.0700
   33 H33       0.7330    -1.5874    -1.2628 H      1 <0>       0.0600
   34 H34       0.1910    -0.1364    -2.1398 H      1 <0>       0.0800
   35 H35       2.4844     0.4993     0.6601 H      1 <0>       0.2000
   36 H36       3.9394    -1.4318     4.5855 H      1 <0>       0.1600
   37 H37       2.9498    -2.8566     6.2702 H      1 <0>       0.1500
   38 H38      -3.6034    -5.6576     6.8621 H      1 <0>       0.3500
   39 H39      -0.4088    -5.2865     8.1533 H      1 <0>       0.4100
   40 H40      -3.0698    -5.7045     9.0024 H      1 <0>       0.0700
   41 H41      -2.5372    -7.1421     8.0981 H      1 <0>       0.0700
   42 H42      -0.7334    -8.5386     8.9349 H      1 <0>       0.1200
   43 H43       0.4915    -9.3324    10.9180 H      1 <0>       0.1300
   44 H44       0.4581    -8.0117    12.9959 H      1 <0>       0.1200
   45 H45      -0.7994    -5.8968    13.0905 H      1 <0>       0.1300
   46 H46      -2.0204    -5.1006    11.1059 H      1 <0>       0.1200
@<TRIPOS>BOND
   1    1    2 1
   2    1   28 1
   3    1   29 1
   4    1   30 1
   5    2    3 1
   6    2    4 1
   7    2   31 1
   8    3   32 1
   9    3   33 1
  10    3   34 1
  11    4   26 am
  12    4    5 1
  13    5    6 2
  14    5   35 1
  15    6    7 1
  16    7   25 ar
  17    7    8 ar
  18    8    9 ar
  19    8   36 1
  20    9   10 ar
  21    9   37 1
  22   10   24 ar
  23   10   11 1
  24   11   12 2
  25   12   13 1
  26   12   23 1
  27   13   14 2
  28   13   15 1
  29   14   38 1
  30   15   16 1
  31   15   39 1
  32   16   17 1
  33   16   40 1
  34   16   41 1
  35   17   22 ar
  36   17   18 ar
  37   18   19 ar
  38   18   42 1
  39   19   20 ar
  40   19   43 1
  41   20   21 ar
  42   20   44 1
  43   21   22 ar
  44   21   45 1
  45   22   46 1
  46   23   24 1
  47   24   25 ar
  48   25   26 1
  49   26   27 2
