@<TRIPOS>MOLECULE
ZINC000053845290
42    46    1     0     0
SMALL
USER_CHARGES
@<TRIPOS>ATOM
1      O1      0.0021   -0.0041    0.0020 O.2      1 ZINC000053845290   -0.4800
2      C2     -0.0145    1.2167    0.0087 C.2      1 ZINC000053845290    0.5500
3      N3     -1.1768    1.8825    0.0290 N.2      1 ZINC000053845290   -0.5700
4      C4     -1.2127    3.1965    0.0372 C.2      1 ZINC000053845290    0.4900
5      C5     -2.5260    3.8738    0.0593 C.ar     1 ZINC000053845290   -0.0700
6      C6     -2.5958    5.2681    0.0626 C.ar     1 ZINC000053845290   -0.0900
7      C7     -3.8250    5.8940    0.0827 C.ar     1 ZINC000053845290   -0.0800
8      C8     -4.9870    5.1430    0.0996 C.ar     1 ZINC000053845290   -0.0800
9      C9     -6.3262    5.8337    0.1211 C.3      1 ZINC000053845290    0.1700
10     N10    -6.7814    6.0593   -1.2530 N.pl3    1 ZINC000053845290   -0.3700
11     C11    -7.9612    5.6619   -1.7739 C.2      1 ZINC000053845290    0.0500
12     C12    -7.9972    6.0620   -3.0660 C.2      1 ZINC000053845290   -0.2700
13     C13    -6.7984    6.7266   -3.3444 C.2      1 ZINC000053845290    0.0500
14     N14    -6.0713    6.7309   -2.2566 N.2      1 ZINC000053845290   -0.2900
15     C15    -4.9249    3.7608    0.0964 C.ar     1 ZINC000053845290   -0.1000
16     C16    -3.7024    3.1222    0.0710 C.ar     1 ZINC000053845290   -0.0400
17     N17    -0.0859    3.9529    0.0266 N.pl3    1 ZINC000053845290   -0.5900
18     C18     1.1607    3.3597    0.0051 C.2      1 ZINC000053845290    0.0700
19     C19     1.2479    1.9861    0.0008 C.2      1 ZINC000053845290   -0.2300
20     C20     2.6281    1.4901   -0.0245 C.2      1 ZINC000053845290   -0.0200
21     C21     3.5347    2.4612   -0.0430 C.2      1 ZINC000053845290   -0.2000
22     C22     5.0492    2.3045   -0.0826 C.3      1 ZINC000053845290   -0.0100
23     S23     5.4813    0.6151    0.4215 S.3      1 ZINC000053845290   -0.2300
24     C24     4.2696   -0.3561   -0.5268 C.3      1 ZINC000053845290   -0.0800
25     C25     2.8767   -0.0102   -0.0174 C.3      1 ZINC000053845290   -0.0600
26     S26     2.7715    4.0505   -0.0125 S.3      1 ZINC000053845290    0.1800
27     H27    -1.6895    5.8555    0.0498 H        1 ZINC000053845290    0.1300
28     H28    -3.8804    6.9726    0.0857 H        1 ZINC000053845290    0.1400
29     H29    -7.0491    5.2086    0.6453 H        1 ZINC000053845290    0.1100
30     H30    -6.2333    6.7906    0.6348 H        1 ZINC000053845290    0.1000
31     H31    -8.7374    5.1212   -1.2528 H        1 ZINC000053845290    0.1700
32     H32    -8.8081    5.8967   -3.7600 H        1 ZINC000053845290    0.1500
33     H33    -6.5226    7.1649   -4.2921 H        1 ZINC000053845290    0.1800
34     H34    -5.8357    3.1805    0.1101 H        1 ZINC000053845290    0.1400
35     H35    -3.6553    2.0432    0.0682 H        1 ZINC000053845290    0.1500
36     H36    -0.1570    4.9203    0.0340 H        1 ZINC000053845290    0.4200
37     H37     5.4084    2.4861   -1.0955 H        1 ZINC000053845290    0.1100
38     H38     5.5078    3.0180    0.6021 H        1 ZINC000053845290    0.1200
39     H39     4.3462   -0.1069   -1.5851 H        1 ZINC000053845290    0.0900
40     H40     4.4592   -1.4201   -0.3846 H        1 ZINC000053845290    0.1200
41     H41     2.7684   -0.3832    1.0011 H        1 ZINC000053845290    0.1000
42     H42     2.1357   -0.4959   -0.6523 H        1 ZINC000053845290    0.1100
@<TRIPOS>BOND
1     1     2     2
2     2     19    1
3     2     3     1
4     3     4     2
5     4     5     1
6     4     17    1
7     5     16    ar
8     5     6     ar
9     6     7     ar
10    6     27    1
11    7     8     ar
12    7     28    1
13    8     9     1
14    8     15    ar
15    9     10    1
16    9     29    1
17    9     30    1
18    10    14    1
19    10    11    1
20    11    12    2
21    11    31    1
22    12    13    1
23    12    32    1
24    13    14    2
25    13    33    1
26    15    16    ar
27    15    34    1
28    16    35    1
29    17    18    1
30    17    36    1
31    18    26    1
32    18    19    2
33    19    20    1
34    20    25    1
35    20    21    2
36    21    22    1
37    21    26    1
38    22    23    1
39    22    37    1
40    22    38    1
41    23    24    1
42    24    25    1
43    24    39    1
44    24    40    1
45    25    41    1
46    25    42    1
@<TRIPOS>SUBSTRUCTURE
1   ZINC000053845290 1     RESIDUE    1   A     ZIN   1
