@<TRIPOS>MOLECULE
ZINC000000582590
54    56    1     0     0
SMALL
USER_CHARGES
@<TRIPOS>ATOM
1      C1      0.3206   -0.2543   -0.2982 C.3      1 ZINC000000582590   -0.1500
2      C2     -0.6984    0.1489    0.7695 C.3      1 ZINC000000582590   -0.1000
3      C3     -0.9518    1.6557    0.6894 C.3      1 ZINC000000582590   -0.1500
4      C4     -2.0101   -0.6021    0.5321 C.3      1 ZINC000000582590    0.1700
5      H5     -2.4153   -0.3268   -0.4416 H        1 ZINC000000582590    0.1100
6      C6     -3.0144   -0.2326    1.6255 C.3      1 ZINC000000582590    0.0600
7      O7     -2.4393   -0.4915    2.9078 O.3      1 ZINC000000582590   -0.5700
8      N8     -1.7596   -2.0452    0.5665 N.pl3    1 ZINC000000582590   -0.6800
9      C9     -2.6072   -2.9114   -0.1044 C.ar     1 ZINC000000582590    0.6300
10     N10    -3.6358   -2.4095   -0.7754 N.ar     1 ZINC000000582590   -0.6100
11     C11    -4.4767   -3.1989   -1.4346 C.ar     1 ZINC000000582590    0.5400
12     N12    -5.5476   -2.6657   -2.1328 N.pl3    1 ZINC000000582590   -0.6300
13     C13    -5.6831   -1.2866   -2.2513 C.ar     1 ZINC000000582590    0.1500
14     C14    -4.5531   -0.4896   -2.4172 C.ar     1 ZINC000000582590   -0.1200
15     C15    -4.6780    0.8649   -2.5346 C.ar     1 ZINC000000582590   -0.0600
16     C16    -5.9446    1.4587   -2.4882 C.ar     1 ZINC000000582590   -0.1400
17     C17    -6.0803    2.9177   -2.6147 C.2      1 ZINC000000582590    0.5200
18     O18    -5.0850    3.6143   -2.7607 O.co2    1 ZINC000000582590   -0.6900
19     O19    -7.1884    3.4349   -2.5739 O.co2    1 ZINC000000582590   -0.6600
20     C20    -7.0833    0.6589   -2.3214 C.ar     1 ZINC000000582590    0.0100
21     Cl21   -8.6582    1.3867   -2.2627 Cl       1 ZINC000000582590   -0.0400
22     C22    -6.9485   -0.7074   -2.2094 C.ar     1 ZINC000000582590   -0.1600
23     C23    -4.2561   -4.5865   -1.4087 C.ar     1 ZINC000000582590   -0.1500
24     N24    -4.8858   -5.6600   -1.9463 N.2      1 ZINC000000582590   -0.4500
25     C25    -4.2558   -6.7465   -1.6068 C.2      1 ZINC000000582590    0.2300
26     N26    -3.1793   -6.4368   -0.8279 N.pl3    1 ZINC000000582590   -0.4700
27     C27    -2.2248   -7.3866   -0.2508 C.3      1 ZINC000000582590    0.1400
28     C28    -2.9657   -8.3581    0.6703 C.3      1 ZINC000000582590   -0.1600
29     C29    -1.5418   -8.1693   -1.3741 C.3      1 ZINC000000582590   -0.1600
30     C30    -3.1541   -5.0725   -0.6850 C.ar     1 ZINC000000582590    0.3500
31     N31    -2.3599   -4.2106   -0.0584 N.ar     1 ZINC000000582590   -0.6200
32     H32     1.2551    0.2808   -0.1290 H        1 ZINC000000582590    0.0500
33     H33     0.5011   -1.3277   -0.2411 H        1 ZINC000000582590    0.0500
34     H34    -0.0684   -0.0033   -1.2850 H        1 ZINC000000582590    0.0600
35     H35    -0.3094   -0.1021    1.7563 H        1 ZINC000000582590    0.0800
36     H36    -1.3231    1.9094   -0.3035 H        1 ZINC000000582590    0.0600
37     H37    -1.6918    1.9400    1.4376 H        1 ZINC000000582590    0.0600
38     H38    -0.0211    2.1911    0.8770 H        1 ZINC000000582590    0.0600
39     H39    -3.2648    0.8253    1.5465 H        1 ZINC000000582590    0.0600
40     H40    -3.9183   -0.8299    1.5055 H        1 ZINC000000582590    0.0500
41     H41    -3.0218   -0.2799    3.6501 H        1 ZINC000000582590    0.3800
42     H42    -1.0003   -2.3940    1.0590 H        1 ZINC000000582590    0.4100
43     H43    -6.2030   -3.2541   -2.5391 H        1 ZINC000000582590    0.4200
44     H44    -3.5743   -0.9447   -2.4526 H        1 ZINC000000582590    0.1300
45     H45    -3.7988    1.4787   -2.6631 H        1 ZINC000000582590    0.1400
46     H46    -7.8230   -1.3280   -2.0807 H        1 ZINC000000582590    0.1300
47     H47    -4.5429   -7.7461   -1.8981 H        1 ZINC000000582590    0.2100
48     H48    -1.4735   -6.8437    0.3226 H        1 ZINC000000582590    0.1100
49     H49    -3.4523   -7.8005    1.4705 H        1 ZINC000000582590    0.0600
50     H50    -3.7170   -8.9010    0.0969 H        1 ZINC000000582590    0.0600
51     H51    -2.2556   -9.0648    1.0996 H        1 ZINC000000582590    0.0800
52     H52    -1.0140   -7.4773   -2.0303 H        1 ZINC000000582590    0.0600
53     H53    -0.8317   -8.8761   -0.9447 H        1 ZINC000000582590    0.0800
54     H54    -2.2931   -8.7123   -1.9475 H        1 ZINC000000582590    0.0600
@<TRIPOS>BOND
1     1     2     1
2     1     32    1
3     1     33    1
4     1     34    1
5     2     3     1
6     2     4     1
7     2     35    1
8     3     36    1
9     3     37    1
10    3     38    1
11    4     5     1
12    4     6     1
13    4     8     1
14    6     7     1
15    6     39    1
16    6     40    1
17    7     41    1
18    8     9     1
19    8     42    1
20    9     31    ar
21    9     10    ar
22    10    11    ar
23    11    12    1
24    11    23    ar
25    12    13    1
26    12    43    1
27    13    22    ar
28    13    14    ar
29    14    15    ar
30    14    44    1
31    15    16    ar
32    15    45    1
33    16    17    1
34    16    20    ar
35    17    18    ar
36    17    19    ar
37    20    21    1
38    20    22    ar
39    22    46    1
40    23    30    ar
41    23    24    1
42    24    25    2
43    25    26    1
44    25    47    1
45    26    27    1
46    26    30    1
47    27    28    1
48    27    29    1
49    27    48    1
50    28    49    1
51    28    50    1
52    28    51    1
53    29    52    1
54    29    53    1
55    29    54    1
56    30    31    ar
@<TRIPOS>SUBSTRUCTURE
1   ZINC000000582590 1     RESIDUE    1   A     ZIN   1
