@<TRIPOS>MOLECULE
ZINC000096024635
  35   37    0    0    0
SMALL
USER_CHARGES
NO_NAME
@<TRIPOS>ATOM
    1 O1        0.0022    -0.0039    -0.0072 O.2    1 <0>      -0.5000
    2 C2       -0.0144     1.2118     0.0074 C.2    1 <0>       0.7000
    3 N3        1.1435     1.9015     0.0074 N.am   1 <0>      -0.6300
    4 C4        2.3553     1.2239    -0.0091 C.2    1 <0>       0.2400
    5 N5        2.4995    -0.0693    -0.0312 N.2    1 <0>      -0.2600
    6 N6        3.6755    -0.5283    -0.0448 N.2    1 <0>      -0.2000
    7 C7        4.6402     0.3500    -0.0351 C.2    1 <0>       0.0300
    8 C8        6.0881     0.0549    -0.0480 C.ar   1 <0>       0.0200
    9 C9        7.0333     1.0878    -0.0303 C.ar   1 <0>      -0.1500
   10 C10       8.3744     0.7670    -0.0433 C.ar   1 <0>       0.1100
   11 N11       8.7699    -0.4916    -0.0720 N.ar   1 <0>      -0.4700
   12 C12       7.9130    -1.4950    -0.0895 C.ar   1 <0>       0.1100
   13 C13       6.5533    -1.2655    -0.0725 C.ar   1 <0>      -0.1300
   14 S14       3.9051     1.9532    -0.0113 S.3    1 <0>       0.1600
   15 N15      -1.1906     1.8696     0.0179 N.am   1 <0>      -0.6700
   16 C16      -2.3921     1.1575    -0.0860 C.ar   1 <0>       0.1500
   17 C17      -2.5119    -0.0934     0.5039 C.ar   1 <0>      -0.0600
   18 C18      -3.6978    -0.7942     0.4002 C.ar   1 <0>      -0.1300
   19 C19      -4.7664    -0.2499    -0.2918 C.ar   1 <0>       0.1400
   20 F20      -5.9254    -0.9368    -0.3920 F      1 <0>      -0.1200
   21 C21      -4.6489     0.9979    -0.8810 C.ar   1 <0>      -0.2000
   22 C22      -5.8136     1.5879    -1.6336 C.3    1 <0>       0.5200
   23 F23      -5.4568     2.8446    -2.1343 F      1 <0>      -0.1700
   24 F24      -6.1588     0.7440    -2.6946 F      1 <0>      -0.1700
   25 F25      -6.9063     1.7229    -0.7705 F      1 <0>      -0.1700
   26 C26      -3.4671     1.7043    -0.7744 C.ar   1 <0>      -0.0700
   27 H27       1.1303     2.8714     0.0191 H      1 <0>       0.4300
   28 H28       6.7168     2.1202    -0.0072 H      1 <0>       0.1400
   29 H29       9.1111     1.5566    -0.0302 H      1 <0>       0.1700
   30 H30       8.2816    -2.5099    -0.1129 H      1 <0>       0.1700
   31 H31       5.8577    -2.0916    -0.0870 H      1 <0>       0.1500
   32 H32      -1.2050     2.8362     0.0974 H      1 <0>       0.4200
   33 H33      -1.6784    -0.5186     1.0432 H      1 <0>       0.1600
   34 H34      -3.7915    -1.7674     0.8590 H      1 <0>       0.1600
   35 H35      -3.3758     2.6774    -1.2340 H      1 <0>       0.1500
@<TRIPOS>BOND
   1    1    2 2
   2    2    3 am
   3    2   15 am
   4    3    4 1
   5    3   27 1
   6    4   14 1
   7    4    5 2
   8    5    6 1
   9    6    7 2
  10    7    8 1
  11    7   14 1
  12    8   13 ar
  13    8    9 ar
  14    9   10 ar
  15    9   28 1
  16   10   11 ar
  17   10   29 1
  18   11   12 ar
  19   12   13 ar
  20   12   30 1
  21   13   31 1
  22   15   16 1
  23   15   32 1
  24   16   26 ar
  25   16   17 ar
  26   17   18 ar
  27   17   33 1
  28   18   19 ar
  29   18   34 1
  30   19   20 1
  31   19   21 ar
  32   21   22 1
  33   21   26 ar
  34   22   23 1
  35   22   24 1
  36   22   25 1
  37   26   35 1
