@<TRIPOS>MOLECULE
ZINC000003991710
36    41    1     0     0
SMALL
USER_CHARGES
@<TRIPOS>ATOM
1      O1      0.0021   -0.0041    0.0020 O.2      1 ZINC000003991710   -0.4600
2      C2     -0.0144    1.2109    0.0087 C.2      1 ZINC000003991710    0.5800
3      N3     -1.1171    1.9810    0.0292 N.am     1 ZINC000003991710   -0.6800
4      C4     -0.7917    3.2861    0.0313 C.2      1 ZINC000003991710    0.5800
5      O5     -1.5773    4.2129    0.0479 O.2      1 ZINC000003991710   -0.4600
6      C6      0.6772    3.4038    0.0100 C.ar     1 ZINC000003991710   -0.1100
7      C7      1.1704    2.0872    0.0021 C.ar     1 ZINC000003991710   -0.1100
8      C8      2.5525    1.8603   -0.0181 C.ar     1 ZINC000003991710   -0.0100
9      C9      3.4466    2.9430   -0.0306 C.ar     1 ZINC000003991710    0.1500
10     N10     4.7349    2.4440   -0.0497 N.pl3    1 ZINC000003991710   -0.6000
11     C11     4.7149    1.0618   -0.0500 C.ar     1 ZINC000003991710    0.1500
12     C12     5.7292    0.1100   -0.0643 C.ar     1 ZINC000003991710   -0.1100
13     C13     5.4155   -1.2334   -0.0595 C.ar     1 ZINC000003991710   -0.0500
14     Br14    6.8015   -2.5196   -0.0791 Br       1 ZINC000003991710   -0.0400
15     C15     4.0919   -1.6491   -0.0399 C.ar     1 ZINC000003991710   -0.1200
16     C16     3.0732   -0.7212   -0.0260 C.ar     1 ZINC000003991710   -0.0400
17     C17     3.3759    0.6395   -0.0307 C.ar     1 ZINC000003991710   -0.0900
18     C18     2.9552    4.2547   -0.0228 C.ar     1 ZINC000003991710    0.1500
19     C19     1.5699    4.4831    0.0024 C.ar     1 ZINC000003991710   -0.0100
20     C20     1.3882    5.9444    0.0045 C.ar     1 ZINC000003991710   -0.1100
21     C21     2.6744    6.5060   -0.0195 C.ar     1 ZINC000003991710    0.1400
22     C22     2.8128    7.8908   -0.0228 C.ar     1 ZINC000003991710   -0.1400
23     C23     1.6945    8.6961   -0.0021 C.ar     1 ZINC000003991710   -0.0700
24     C24     0.4242    8.1398    0.0222 C.ar     1 ZINC000003991710   -0.1500
25     C25     0.2657    6.7712    0.0249 C.ar     1 ZINC000003991710   -0.0500
26     N26     3.5980    5.4776   -0.0316 N.pl3    1 ZINC000003991710   -0.6100
27     H27    -2.0254    1.6406    0.0407 H        1 ZINC000003991710    0.4300
28     H28     5.5389    2.9865   -0.0617 H        1 ZINC000003991710    0.4200
29     H29     6.7627    0.4228   -0.0796 H        1 ZINC000003991710    0.1400
30     H30     3.8591   -2.7037   -0.0360 H        1 ZINC000003991710    0.1400
31     H31     2.0437   -1.0472   -0.0115 H        1 ZINC000003991710    0.1500
32     H32     3.7972    8.3347   -0.0413 H        1 ZINC000003991710    0.1300
33     H33     1.8084    9.7700   -0.0044 H        1 ZINC000003991710    0.1300
34     H34    -0.4440    8.7820    0.0390 H        1 ZINC000003991710    0.1300
35     H35    -0.7244    6.3404    0.0434 H        1 ZINC000003991710    0.1400
36     H36     4.5604    5.5975   -0.0485 H        1 ZINC000003991710    0.4200
@<TRIPOS>BOND
1     1     2     2
2     2     7     1
3     2     3     am
4     3     4     am
5     3     27    1
6     4     5     2
7     4     6     1
8     6     19    ar
9     6     7     ar
10    7     8     ar
11    8     17    1
12    8     9     ar
13    9     10    1
14    9     18    ar
15    10    11    1
16    10    28    1
17    11    17    ar
18    11    12    ar
19    12    13    ar
20    12    29    1
21    13    14    1
22    13    15    ar
23    15    16    ar
24    15    30    1
25    16    17    ar
26    16    31    1
27    18    26    1
28    18    19    ar
29    19    20    1
30    20    25    ar
31    20    21    ar
32    21    22    ar
33    21    26    1
34    22    23    ar
35    22    32    1
36    23    24    ar
37    23    33    1
38    24    25    ar
39    24    34    1
40    25    35    1
41    26    36    1
@<TRIPOS>SUBSTRUCTURE
1   ZINC000003991710 1     RESIDUE    1   A     ZIN   1
