@<TRIPOS>MOLECULE
ZINC000004218892
  21   22    0    0    0
SMALL
USER_CHARGES
NO_NAME
@<TRIPOS>ATOM
    1 N1       -0.0116     1.3582    -0.2351 N.pl3  1 <0>      -0.8300
    2 C2        0.0044    -0.0083    -0.1205 C.2    1 <0>       0.4900
    3 C3       -1.1666    -0.7140    -0.1178 C.2    1 <0>      -0.4100
    4 C4       -1.1199    -2.1119     0.0010 C.2    1 <0>       0.5600
    5 O5       -2.1514    -2.7618     0.0053 O.2    1 <0>      -0.5300
    6 N6        0.0719    -2.7312     0.1097 N.am   1 <0>      -0.6700
    7 C7        1.2148    -2.0213     0.1053 C.2    1 <0>       0.7100
    8 O8        2.2795    -2.5999     0.2045 O.2    1 <0>      -0.5300
    9 N9        1.1975    -0.6809    -0.0130 N.am   1 <0>      -0.5200
   10 C10       2.4575     0.0665    -0.0153 C.3    1 <0>       0.0400
   11 C11       3.5824    -0.4480    -0.9158 C.3    1 <0>      -0.1400
   12 C12       2.8252     0.8276    -1.2906 C.3    1 <0>      -0.1800
   13 H13       0.8219     1.8542    -0.2405 H      1 <0>       0.4100
   14 H14      -0.8563     1.8283    -0.3147 H      1 <0>       0.4300
   15 H15      -2.1141    -0.2031    -0.2054 H      1 <0>       0.1600
   16 H16       0.1062    -3.6971     0.1922 H      1 <0>       0.4300
   17 H17       2.7401     0.5145     0.9374 H      1 <0>       0.1400
   18 H18       4.6053    -0.3386    -0.5556 H      1 <0>       0.1200
   19 H19       3.3849    -1.3425    -1.5065 H      1 <0>       0.1100
   20 H20       2.1296     0.7722    -2.1279 H      1 <0>       0.1000
   21 H21       3.3500     1.7761    -1.1770 H      1 <0>       0.1200
@<TRIPOS>BOND
   1    1    2 1
   2    1   13 1
   3    1   14 1
   4    2    9 1
   5    2    3 2
   6    3    4 1
   7    3   15 1
   8    4    5 2
   9    4    6 am
  10    6    7 am
  11    6   16 1
  12    7    8 2
  13    7    9 am
  14    9   10 1
  15   10   12 1
  16   10   11 1
  17   10   17 1
  18   11   12 1
  19   11   18 1
  20   11   19 1
  21   12   20 1
  22   12   21 1
