@<TRIPOS>MOLECULE
ZINC000000190251
32    34    1     0     0
SMALL
USER_CHARGES
@<TRIPOS>ATOM
1      C1      0.0728    1.5033    0.0017 C.3      1 ZINC000000190251   -0.1200
2      C2      0.0688   -0.0037   -0.0042 C.ar     1 ZINC000000190251   -0.1000
3      C3      0.8663   -0.6992    0.8861 C.ar     1 ZINC000000190251   -0.0800
4      C4      0.8654   -2.0802    0.8831 C.ar     1 ZINC000000190251   -0.1600
5      C5      0.0618   -2.7707   -0.0154 C.ar     1 ZINC000000190251    0.1500
6      N6      0.0581   -4.1682   -0.0209 N.pl3    1 ZINC000000190251   -0.6300
7      C7      0.1778   -4.8663    1.1706 C.2      1 ZINC000000190251    0.3300
8      N8      0.3034   -6.1526    1.2753 N.2      1 ZINC000000190251   -0.5200
9      C9      0.4061   -6.6495    2.5075 C.2      1 ZINC000000190251    0.1300
10     C10     0.5547   -8.1003    2.7680 C.ar     1 ZINC000000190251    0.1900
11     C11     0.5958   -8.9943    1.6988 C.ar     1 ZINC000000190251   -0.1400
12     C12     0.7350  -10.3462    1.9581 C.ar     1 ZINC000000190251   -0.0800
13     C13     0.8287  -10.7617    3.2793 C.ar     1 ZINC000000190251   -0.1700
14     C14     0.7808   -9.8212    4.2911 C.ar     1 ZINC000000190251    0.1000
15     N15     0.6531   -8.5385    4.0174 N.ar     1 ZINC000000190251   -0.4800
16     C16     0.3657   -5.7403    3.4982 C.2      1 ZINC000000190251   -0.2400
17     S17     0.1905   -4.1428    2.7759 S.3      1 ZINC000000190251    0.1000
18     C18    -0.7385   -2.0689   -0.9081 C.ar     1 ZINC000000190251   -0.1400
19     C19    -0.7367   -0.6879   -0.8962 C.ar     1 ZINC000000190251   -0.0900
20     H20    -0.6887    1.8659    0.6922 H        1 ZINC000000190251    0.0700
21     H21     1.0517    1.8628    0.3189 H        1 ZINC000000190251    0.0700
22     H22    -0.1418    1.8712   -1.0017 H        1 ZINC000000190251    0.0700
23     H23     1.4908   -0.1617    1.5843 H        1 ZINC000000190251    0.1300
24     H24     1.4890   -2.6227    1.5782 H        1 ZINC000000190251    0.1300
25     H25    -0.0283   -4.6497   -0.8585 H        1 ZINC000000190251    0.4200
26     H26     0.5197   -8.6366    0.6826 H        1 ZINC000000190251    0.1400
27     H27     0.7695  -11.0624    1.1504 H        1 ZINC000000190251    0.1400
28     H28     0.9376  -11.8101    3.5144 H        1 ZINC000000190251    0.1400
29     H29     0.8531  -10.1416    5.3200 H        1 ZINC000000190251    0.1600
30     H30     0.4331   -5.9528    4.5549 H        1 ZINC000000190251    0.1900
31     H31    -1.3644   -2.6026   -1.6079 H        1 ZINC000000190251    0.1300
32     H32    -1.3586   -0.1417   -1.5899 H        1 ZINC000000190251    0.1300
@<TRIPOS>BOND
1     1     2     1
2     1     20    1
3     1     21    1
4     1     22    1
5     2     19    ar
6     2     3     ar
7     3     4     ar
8     3     23    1
9     4     5     ar
10    4     24    1
11    5     6     1
12    5     18    ar
13    6     7     1
14    6     25    1
15    7     17    1
16    7     8     2
17    8     9     1
18    9     10    1
19    9     16    2
20    10    15    ar
21    10    11    ar
22    11    12    ar
23    11    26    1
24    12    13    ar
25    12    27    1
26    13    14    ar
27    13    28    1
28    14    15    ar
29    14    29    1
30    16    17    1
31    16    30    1
32    18    19    ar
33    18    31    1
34    19    32    1
@<TRIPOS>SUBSTRUCTURE
1   ZINC000000190251 1     RESIDUE    1   A     ZIN   1
