@<TRIPOS>MOLECULE
ZINC000068207794
  48   50    0    0    0
SMALL
USER_CHARGES
NO_NAME
@<TRIPOS>ATOM
    1 C1       -0.2645     1.4909     0.0213 C.3    1 <0>      -0.1200
    2 C2       -0.1946    -0.0145     0.0107 C.ar   1 <0>      -0.0900
    3 C3        0.3697    -0.6713    -1.0675 C.ar   1 <0>      -0.1000
    4 C4        0.4357    -2.0507    -1.0802 C.ar   1 <0>      -0.1300
    5 C5       -0.0655    -2.7784    -0.0084 C.ar   1 <0>       0.1300
    6 N6        0.0001    -4.1749    -0.0178 N.pl3  1 <0>      -0.6200
    7 C7        0.1499    -4.8666     1.1669 C.ar   1 <0>       0.5200
    8 N8        0.1432    -4.2253     2.3295 N.ar   1 <0>      -0.6100
    9 C9        0.2862    -4.8859     3.4690 C.ar   1 <0>       0.6100
   10 N10       0.2737    -4.1822     4.6554 N.pl3  1 <0>      -0.7100
   11 C11       0.4300    -4.8901     5.9285 C.3    1 <0>       0.1400
   12 H12       1.1138    -5.7288     5.7978 H      1 <0>       0.1300
   13 C13      -0.9330    -5.4085     6.3972 C.3    1 <0>      -0.1600
   14 C14      -1.8627    -4.2191     6.6515 C.3    1 <0>       0.0500
   15 O15      -1.2693    -3.3505     7.6187 O.3    1 <0>      -0.3500
   16 C16      -0.0148    -2.7979     7.2148 C.3    1 <0>       0.0400
   17 C17       0.9912    -3.9308     6.9826 C.3    1 <0>      -0.0200
   18 H18       1.1544    -4.4700     7.9158 H      1 <0>       0.1700
   19 N19       2.2639    -3.3683     6.5116 N.4    1 <0>      -0.6300
   20 H20       2.6280    -2.7327     7.2055 H      1 <0>       0.4400
   21 H21       2.9255    -4.1147     6.3591 H      1 <0>       0.4400
   22 H22       2.1123    -2.8712     5.6468 H      1 <0>       0.4300
   23 N23       0.4407    -6.2038     3.5045 N.ar   1 <0>      -0.6000
   24 C24       0.4590    -6.9190     2.3947 C.ar   1 <0>       0.2600
   25 C25       0.3071    -6.2700     1.1648 C.ar   1 <0>      -0.3500
   26 C26       0.3208    -7.0276    -0.0970 C.2    1 <0>       0.5900
   27 N27       0.3507    -8.3749    -0.0737 N.am   1 <0>      -0.8400
   28 O28       0.3050    -6.4379    -1.1607 O.2    1 <0>      -0.5500
   29 C29      -0.6317    -2.1155     1.0730 C.ar   1 <0>      -0.1200
   30 C30      -0.6898    -0.7356     1.0817 C.ar   1 <0>      -0.1100
   31 H31       0.6403     1.8934     0.4767 H      1 <0>       0.0700
   32 H32      -0.3508     1.8578    -1.0014 H      1 <0>       0.0700
   33 H33      -1.1337     1.8102     0.5964 H      1 <0>       0.0700
   34 H34       0.7589    -0.1050    -1.9006 H      1 <0>       0.1300
   35 H35       0.8762    -2.5631    -1.9227 H      1 <0>       0.1300
   36 H36      -0.0596    -4.6575    -0.8571 H      1 <0>       0.4400
   37 H37       0.1614    -3.2188     4.6468 H      1 <0>       0.4100
   38 H38      -1.3634    -6.0492     5.6276 H      1 <0>       0.1100
   39 H39      -0.8091    -5.9774     7.3187 H      1 <0>       0.1000
   40 H40      -2.0185    -3.6740     5.7205 H      1 <0>       0.0600
   41 H41      -2.8206    -4.5800     7.0262 H      1 <0>       0.1200
   42 H42      -0.1464    -2.2342     6.2912 H      1 <0>       0.0700
   43 H43       0.3586    -2.1350     7.9953 H      1 <0>       0.1200
   44 H44       0.5857    -7.9907     2.4361 H      1 <0>       0.1800
   45 H45       0.3633    -8.8451     0.7745 H      1 <0>       0.4000
   46 H46       0.3597    -8.8742    -0.9053 H      1 <0>       0.4100
   47 H47      -1.0226    -2.6783     1.9077 H      1 <0>       0.1400
   48 H48      -1.1299    -0.2196     1.9222 H      1 <0>       0.1200
@<TRIPOS>BOND
   1    1    2 1
   2    1   31 1
   3    1   32 1
   4    1   33 1
   5    2   30 ar
   6    2    3 ar
   7    3    4 ar
   8    3   34 1
   9    4    5 ar
  10    4   35 1
  11    5    6 1
  12    5   29 ar
  13    6    7 1
  14    6   36 1
  15    7   25 ar
  16    7    8 ar
  17    8    9 ar
  18    9   10 1
  19    9   23 ar
  20   10   11 1
  21   10   37 1
  22   11   12 1
  23   11   17 1
  24   11   13 1
  25   13   14 1
  26   13   38 1
  27   13   39 1
  28   14   15 1
  29   14   40 1
  30   14   41 1
  31   15   16 1
  32   16   17 1
  33   16   42 1
  34   16   43 1
  35   17   18 1
  36   17   19 1
  37   19   20 1
  38   19   21 1
  39   19   22 1
  40   23   24 ar
  41   24   25 ar
  42   24   44 1
  43   25   26 1
  44   26   27 am
  45   26   28 2
  46   27   45 1
  47   27   46 1
  48   29   30 ar
  49   29   47 1
  50   30   48 1
