@<TRIPOS>MOLECULE
ZINC000072318121
70    74    1     0     0
SMALL
USER_CHARGES
@<TRIPOS>ATOM
1      C1      1.9141   -6.2861   -8.2979 C.3      1 ZINC000072318121   -0.1900
2      C2      1.6261   -4.7837   -8.3222 C.3      1 ZINC000072318121   -0.0100
3      N3      1.8435   -4.2217   -6.9825 N.4      1 ZINC000072318121   -0.3900
4      H4      1.2855   -4.7276   -6.3111 H        1 ZINC000072318121    0.4200
5      C5      1.4521   -2.8059   -6.9763 C.3      1 ZINC000072318121    0.0000
6      C6      1.6607   -2.2250   -5.5761 C.3      1 ZINC000072318121    0.0300
7      N7      3.0742   -2.3619   -5.1976 N.3      1 ZINC000072318121   -0.5400
8      C8      3.3267   -1.7635   -3.8799 C.3      1 ZINC000072318121    0.1100
9      C9      4.8120   -1.7010   -3.6329 C.ar     1 ZINC000072318121   -0.1900
10     C10     5.4665   -2.7620   -3.0219 C.ar     1 ZINC000072318121   -0.0400
11     C11     6.8308   -2.6643   -2.8136 C.ar     1 ZINC000072318121   -0.2100
12     C12     7.4965   -1.5133   -3.2209 C.ar     1 ZINC000072318121    0.3900
13     N13     8.8690   -1.4017   -3.0174 N.pl3    1 ZINC000072318121   -0.6200
14     C14     9.5585   -0.3087   -3.5218 C.ar     1 ZINC000072318121    0.5400
15     N15     8.8789    0.6749   -4.0920 N.ar     1 ZINC000072318121   -0.4700
16     C16     9.4988    1.7356   -4.5860 C.ar     1 ZINC000072318121    0.1600
17     C17    10.8791    1.8129   -4.5026 C.ar     1 ZINC000072318121   -0.0300
18     F18    11.5434    2.8809   -4.9959 F        1 ZINC000072318121   -0.1100
19     C19    11.5693    0.7577   -3.8944 C.ar     1 ZINC000072318121    0.2400
20     C20    13.0463    0.7913   -3.7798 C.ar     1 ZINC000072318121   -0.0300
21     C21    13.8115    1.3759   -4.7945 C.ar     1 ZINC000072318121   -0.1400
22     C22    15.1731    1.4141   -4.7014 C.ar     1 ZINC000072318121    0.1600
23     F23    15.9018    1.9816   -5.6874 F        1 ZINC000072318121   -0.1200
24     C24    15.8145    0.8653   -3.5838 C.ar     1 ZINC000072318121    0.0400
25     N25    17.1163    0.7548   -3.2163 N.2      1 ZINC000072318121   -0.4800
26     C26    17.1973    0.1526   -2.0656 C.2      1 ZINC000072318121    0.3000
27     C27    18.4819   -0.1487   -1.3376 C.3      1 ZINC000072318121   -0.0800
28     N28    15.9536   -0.1648   -1.6151 N.pl3    1 ZINC000072318121   -0.4800
29     C29    15.6327   -0.8477   -0.3594 C.3      1 ZINC000072318121    0.1300
30     C30    14.8069    0.0832    0.5308 C.3      1 ZINC000072318121   -0.1700
31     C31    14.8277   -2.1139   -0.6587 C.3      1 ZINC000072318121   -0.1700
32     C32    15.0494    0.2767   -2.5615 C.ar     1 ZINC000072318121    0.0700
33     C33    13.6676    0.2465   -2.6607 C.ar     1 ZINC000072318121   -0.0600
34     N34    10.8771   -0.2741   -3.4158 N.ar     1 ZINC000072318121   -0.5300
35     N35     6.8366   -0.5226   -3.8009 N.ar     1 ZINC000072318121   -0.4700
36     C36     5.5369   -0.5903   -4.0171 C.ar     1 ZINC000072318121    0.1700
37     C37     3.4872   -3.7722   -5.2235 C.3      1 ZINC000072318121    0.0200
38     C38     3.2637   -4.3401   -6.6267 C.3      1 ZINC000072318121   -0.0100
39     H39     2.9485   -6.4529   -7.9974 H        1 ZINC000072318121    0.0800
40     H40     1.2463   -6.7727   -7.5870 H        1 ZINC000072318121    0.0800
41     H41     1.7528   -6.7031   -9.2920 H        1 ZINC000072318121    0.1100
42     H42     2.2939   -4.2971   -9.0331 H        1 ZINC000072318121    0.1300
43     H43     0.5917   -4.6169   -8.6227 H        1 ZINC000072318121    0.1300
44     H44     2.0636   -2.2568   -7.6923 H        1 ZINC000072318121    0.1400
45     H45     0.4015   -2.7182   -7.2533 H        1 ZINC000072318121    0.1400
46     H46     1.3844   -1.1706   -5.5750 H        1 ZINC000072318121    0.1300
47     H47     1.0390   -2.7650   -4.8620 H        1 ZINC000072318121    0.0600
48     H48     2.9112   -0.7562   -3.8527 H        1 ZINC000072318121    0.1000
49     H49     2.8553   -2.3720   -3.1082 H        1 ZINC000072318121    0.0600
50     H50     4.9229   -3.6436   -2.7159 H        1 ZINC000072318121    0.1300
51     H51     7.3714   -3.4709   -2.3407 H        1 ZINC000072318121    0.1400
52     H52     9.3434   -2.0883   -2.5228 H        1 ZINC000072318121    0.4300
53     H53     8.9344    2.5315   -5.0491 H        1 ZINC000072318121    0.1900
54     H54    13.3214    1.8001   -5.6584 H        1 ZINC000072318121    0.1500
55     H55    18.6843    0.6421   -0.6153 H        1 ZINC000072318121    0.0900
56     H56    18.3894   -1.1017   -0.8166 H        1 ZINC000072318121    0.0800
57     H57    19.3012   -0.2045   -2.0544 H        1 ZINC000072318121    0.1000
58     H58    16.5558   -1.1169    0.1540 H        1 ZINC000072318121    0.1100
59     H59    13.8451    0.2800    0.0572 H        1 ZINC000072318121    0.0600
60     H60    14.6449   -0.3896    1.4995 H        1 ZINC000072318121    0.0800
61     H61    15.3424    1.0224    0.6699 H        1 ZINC000072318121    0.0700
62     H62    15.4160   -2.7771   -1.2928 H        1 ZINC000072318121    0.0700
63     H63    14.5889   -2.6220    0.2757 H        1 ZINC000072318121    0.0800
64     H64    13.9046   -1.8447   -1.1720 H        1 ZINC000072318121    0.0700
65     H65    13.0765   -0.1995   -1.8746 H        1 ZINC000072318121    0.1400
66     H66     5.0319    0.2374   -4.4929 H        1 ZINC000072318121    0.1600
67     H67     4.5436   -3.8466   -4.9651 H        1 ZINC000072318121    0.1200
68     H68     2.8956   -4.3377   -4.5035 H        1 ZINC000072318121    0.0600
69     H69     3.5560   -5.3900   -6.6446 H        1 ZINC000072318121    0.1400
70     H70     3.8660   -3.7830   -7.3444 H        1 ZINC000072318121    0.1400
@<TRIPOS>BOND
1     1     2     1
2     1     39    1
3     1     40    1
4     1     41    1
5     2     3     1
6     2     42    1
7     2     43    1
8     3     4     1
9     3     38    1
10    3     5     1
11    5     6     1
12    5     44    1
13    5     45    1
14    6     7     1
15    6     46    1
16    6     47    1
17    7     8     1
18    7     37    1
19    8     9     1
20    8     48    1
21    8     49    1
22    9     36    ar
23    9     10    ar
24    10    11    ar
25    10    50    1
26    11    12    ar
27    11    51    1
28    12    13    1
29    12    35    ar
30    13    14    1
31    13    52    1
32    14    34    ar
33    14    15    ar
34    15    16    ar
35    16    17    ar
36    16    53    1
37    17    18    1
38    17    19    ar
39    19    20    1
40    19    34    ar
41    20    33    ar
42    20    21    ar
43    21    22    ar
44    21    54    1
45    22    23    1
46    22    24    ar
47    24    32    ar
48    24    25    1
49    25    26    2
50    26    27    1
51    26    28    1
52    27    55    1
53    27    56    1
54    27    57    1
55    28    29    1
56    28    32    1
57    29    30    1
58    29    31    1
59    29    58    1
60    30    59    1
61    30    60    1
62    30    61    1
63    31    62    1
64    31    63    1
65    31    64    1
66    32    33    ar
67    33    65    1
68    35    36    ar
69    36    66    1
70    37    38    1
71    37    67    1
72    37    68    1
73    38    69    1
74    38    70    1
@<TRIPOS>SUBSTRUCTURE
1   ZINC000072318121 1     RESIDUE    1   A     ZIN   1
