@<TRIPOS>MOLECULE
ZINC000058638454
36    39    1     0     0
SMALL
USER_CHARGES
@<TRIPOS>ATOM
1      O1     -0.1023    0.0893   -1.2336 O.co2    1 ZINC000058638454   -0.6800
2      C2     -0.1025    1.2973   -1.0433 C.2      1 ZINC000058638454    0.5200
3      O3      0.9428    1.9279   -1.1159 O.co2    1 ZINC000058638454   -0.6800
4      C4     -1.3646    1.9949   -0.7323 C.ar     1 ZINC000058638454   -0.1100
5      C5     -1.3609    3.3818   -0.5205 C.ar     1 ZINC000058638454   -0.0800
6      C6     -2.5194    4.0389   -0.2324 C.ar     1 ZINC000058638454   -0.1100
7      C7     -3.7229    3.3360   -0.1452 C.ar     1 ZINC000058638454   -0.1100
8      C8     -3.7481    1.9375   -0.3558 C.ar     1 ZINC000058638454    0.1400
9      C9     -2.5507    1.2753   -0.6565 C.ar     1 ZINC000058638454   -0.0600
10     N10    -4.8975    1.2434   -0.2757 N.ar     1 ZINC000058638454   -0.5100
11     C11    -6.0558    1.7942   -0.0030 C.ar     1 ZINC000058638454    0.4200
12     N12    -7.1909    1.0074    0.0606 N.pl3    1 ZINC000058638454   -0.6500
13     C13    -7.0851   -0.3819   -0.0480 C.ar     1 ZINC000058638454    0.1800
14     C14    -6.0159   -1.0464    0.5391 C.ar     1 ZINC000058638454   -0.1000
15     C15    -5.9139   -2.4197    0.4307 C.ar     1 ZINC000058638454   -0.0800
16     C16    -6.8746   -3.1335   -0.2613 C.ar     1 ZINC000058638454   -0.1300
17     C17    -7.9415   -2.4749   -0.8481 C.ar     1 ZINC000058638454   -0.0200
18     Cl18   -9.1454   -3.3753   -1.7160 Cl       1 ZINC000058638454   -0.0700
19     C19    -8.0520   -1.1017   -0.7383 C.ar     1 ZINC000058638454   -0.1500
20     C20    -6.1572    3.2338    0.2350 C.ar     1 ZINC000058638454   -0.0800
21     C21    -7.3639    3.8717    0.5300 C.ar     1 ZINC000058638454   -0.1400
22     C22    -7.3548    5.2247    0.7371 C.ar     1 ZINC000058638454    0.0800
23     N23    -6.2407    5.9329    0.6648 N.ar     1 ZINC000058638454   -0.4700
24     C24    -5.0716    5.3907    0.3907 C.ar     1 ZINC000058638454    0.1300
25     C25    -4.9822    4.0197    0.1643 C.ar     1 ZINC000058638454   -0.0400
26     H26    -0.4339    3.9320   -0.5859 H        1 ZINC000058638454    0.1400
27     H27    -2.5067    5.1067   -0.0705 H        1 ZINC000058638454    0.1200
28     H28    -2.5483    0.2079   -0.8211 H        1 ZINC000058638454    0.1400
29     H29    -8.0607    1.4197    0.1806 H        1 ZINC000058638454    0.4200
30     H30    -5.2646   -0.4898    1.0796 H        1 ZINC000058638454    0.1400
31     H31    -5.0825   -2.9364    0.8868 H        1 ZINC000058638454    0.1400
32     H32    -6.7925   -4.2071   -0.3445 H        1 ZINC000058638454    0.1300
33     H33    -8.8844   -0.5879   -1.1962 H        1 ZINC000058638454    0.1300
34     H34    -8.2842    3.3099    0.5930 H        1 ZINC000058638454    0.1400
35     H35    -8.2829    5.7275    0.9655 H        1 ZINC000058638454    0.1600
36     H36    -4.1863    6.0073    0.3412 H        1 ZINC000058638454    0.1700
@<TRIPOS>BOND
1     1     2     ar
2     2     3     ar
3     2     4     1
4     4     9     ar
5     4     5     ar
6     5     6     ar
7     5     26    1
8     6     7     ar
9     6     27    1
10    7     25    ar
11    7     8     ar
12    8     9     ar
13    8     10    ar
14    9     28    1
15    10    11    ar
16    11    12    1
17    11    20    ar
18    12    13    1
19    12    29    1
20    13    19    ar
21    13    14    ar
22    14    15    ar
23    14    30    1
24    15    16    ar
25    15    31    1
26    16    17    ar
27    16    32    1
28    17    18    1
29    17    19    ar
30    19    33    1
31    20    25    ar
32    20    21    ar
33    21    22    ar
34    21    34    1
35    22    23    ar
36    22    35    1
37    23    24    ar
38    24    25    ar
39    24    36    1
@<TRIPOS>SUBSTRUCTURE
1   ZINC000058638454 1     RESIDUE    1   A     ZIN   1
