@<TRIPOS>MOLECULE
ZINC000040379769
  55   58    0    0    0
SMALL
USER_CHARGES
NO_NAME
@<TRIPOS>ATOM
    1 C1        0.6678     0.1747     2.8600 C.3    1 <0>       0.0300
    2 O2        0.4453    -0.8136     1.8521 O.3    1 <0>      -0.3100
    3 C3       -0.7529    -1.4546     1.8703 C.ar   1 <0>       0.1700
    4 C4       -1.6971    -1.1340     2.8354 C.ar   1 <0>      -0.2500
    5 C5       -2.9162    -1.7850     2.8553 C.ar   1 <0>      -0.0500
    6 C6       -3.1989    -2.7563     1.9150 C.ar   1 <0>      -0.2100
    7 C7       -2.2574    -3.0812     0.9459 C.ar   1 <0>       0.2400
    8 N8       -2.5433    -4.0643    -0.0059 N.pl3  1 <0>      -0.6400
    9 C9       -3.7210    -4.7766     0.0714 C.2    1 <0>       0.4700
   10 C10      -3.6919    -6.1780     0.1673 C.2    1 <0>      -0.2300
   11 C11      -2.4264    -6.9108     0.1875 C.2    1 <0>       0.5800
   12 N12      -2.4277    -8.2584     0.1680 N.am   1 <0>      -0.8400
   13 O13      -1.3716    -6.3034     0.2219 O.2    1 <0>      -0.5400
   14 C14      -4.9789    -6.8791     0.2469 C.2    1 <0>       0.3100
   15 N15      -5.3192    -8.1460     0.3425 N.2    1 <0>      -0.4900
   16 C16      -6.6563    -8.2423     0.3816 C.2    1 <0>       0.0600
   17 C17      -7.1800    -7.0033     0.3089 C.2    1 <0>      -0.1100
   18 N18      -6.1274    -6.1241     0.2228 N.pl3  1 <0>      -0.4400
   19 C19      -6.0437    -4.7650     0.1271 C.2    1 <0>       0.6400
   20 N20      -7.1987    -4.0316     0.1046 N.pl3  1 <0>      -0.7100
   21 C21      -7.1372    -2.5714     0.0025 C.3    1 <0>       0.1400
   22 H22      -6.2669    -2.2054     0.5471 H      1 <0>       0.1300
   23 C23      -7.0251    -2.1674    -1.4689 C.3    1 <0>      -0.1300
   24 C24      -8.2468    -2.6811    -2.2334 C.3    1 <0>      -0.1300
   25 C25      -9.5164    -2.0740    -1.6331 C.3    1 <0>      -0.1200
   26 C26      -9.6285    -2.4781    -0.1617 C.3    1 <0>      -0.1400
   27 C27      -8.4069    -1.9643     0.6028 C.3    1 <0>       0.0200
   28 H28      -8.3611    -0.8779     0.5268 H      1 <0>       0.1700
   29 N29      -8.5145    -2.3523     2.0156 N.4    1 <0>      -0.6400
   30 H30      -8.5568    -3.3580     2.0859 H      1 <0>       0.4300
   31 H31      -7.7088    -2.0135     2.5197 H      1 <0>       0.4400
   32 H32      -9.3518    -1.9519     2.4114 H      1 <0>       0.4400
   33 N33      -4.8918    -4.1372     0.0609 N.2    1 <0>      -0.5600
   34 C34      -1.0348    -2.4248     0.9213 C.ar   1 <0>      -0.2000
   35 H35       1.6597     0.6078     2.7315 H      1 <0>       0.1000
   36 H36      -0.0849     0.9583     2.7729 H      1 <0>       0.0600
   37 H37       0.5982    -0.2882     3.8443 H      1 <0>       0.0600
   38 H38      -1.4788    -0.3752     3.5722 H      1 <0>       0.1300
   39 H39      -3.6491    -1.5338     3.6078 H      1 <0>       0.1200
   40 H40      -4.1520    -3.2639     1.9332 H      1 <0>       0.1200
   41 H41      -1.9130    -4.2452    -0.7206 H      1 <0>       0.4300
   42 H42      -3.2679    -8.7423     0.1405 H      1 <0>       0.4100
   43 H43      -1.5883    -8.7444     0.1814 H      1 <0>       0.4100
   44 H44      -7.2196    -9.1606     0.4580 H      1 <0>       0.1900
   45 H45      -8.2296    -6.7489     0.3164 H      1 <0>       0.1900
   46 H46      -8.0581    -4.4784     0.1563 H      1 <0>       0.4100
   47 H47      -6.9794    -1.0810    -1.5449 H      1 <0>       0.0900
   48 H48      -6.1206    -2.5999    -1.8966 H      1 <0>       0.0900
   49 H49      -8.1669    -2.3932    -3.2816 H      1 <0>       0.0800
   50 H50      -8.2925    -3.7675    -2.1574 H      1 <0>       0.0700
   51 H51      -9.4707    -0.9876    -1.7090 H      1 <0>       0.0800
   52 H52     -10.3868    -2.4400    -2.1777 H      1 <0>       0.0900
   53 H53     -10.5331    -2.0456     0.2660 H      1 <0>       0.1000
   54 H54      -9.6743    -3.5645    -0.0857 H      1 <0>       0.0800
   55 H55      -0.3013    -2.6753     0.1692 H      1 <0>       0.1400
@<TRIPOS>BOND
   1    1    2 1
   2    1   35 1
   3    1   36 1
   4    1   37 1
   5    2    3 1
   6    3   34 ar
   7    3    4 ar
   8    4    5 ar
   9    4   38 1
  10    5    6 ar
  11    5   39 1
  12    6    7 ar
  13    6   40 1
  14    7    8 1
  15    7   34 ar
  16    8    9 1
  17    8   41 1
  18    9   33 1
  19    9   10 2
  20   10   11 1
  21   10   14 1
  22   11   12 am
  23   11   13 2
  24   12   42 1
  25   12   43 1
  26   14   18 1
  27   14   15 2
  28   15   16 1
  29   16   17 2
  30   16   44 1
  31   17   18 1
  32   17   45 1
  33   18   19 1
  34   19   20 1
  35   19   33 2
  36   20   21 1
  37   20   46 1
  38   21   22 1
  39   21   27 1
  40   21   23 1
  41   23   24 1
  42   23   47 1
  43   23   48 1
  44   24   25 1
  45   24   49 1
  46   24   50 1
  47   25   26 1
  48   25   51 1
  49   25   52 1
  50   26   27 1
  51   26   53 1
  52   26   54 1
  53   27   28 1
  54   27   29 1
  55   29   30 1
  56   29   31 1
  57   29   32 1
  58   34   55 1
