@<TRIPOS>MOLECULE
ZINC000008647797
  26   27    0    0    0
SMALL
USER_CHARGES
NO_NAME
@<TRIPOS>ATOM
    1 C1       -0.0187     1.5258     0.0104 C.3    1 <0>      -0.1500
    2 C2        0.0021    -0.0041     0.0020 C.3    1 <0>       0.0600
    3 O3        0.6817    -0.4723    -1.1926 O.3    1 <0>      -0.3400
    4 C4        0.7867    -1.8066    -1.3538 C.2    1 <0>       0.5300
    5 O5        0.3227    -2.5581    -0.5184 O.2    1 <0>      -0.5700
    6 C6        1.4620    -2.3527    -2.5394 C.2    1 <0>      -0.4500
    7 C7        1.5710    -3.7170    -2.7189 C.2    1 <0>       0.2500
    8 N8        2.1788    -4.2501    -3.7864 N.pl3  1 <0>      -0.6200
    9 C9        2.7408    -3.4849    -4.7855 C.ar   1 <0>       0.1900
   10 C10       3.3610    -4.0898    -5.8754 C.ar   1 <0>      -0.1500
   11 C11       3.9188    -3.3139    -6.8680 C.ar   1 <0>      -0.0900
   12 C12       3.8714    -1.9292    -6.7961 C.ar   1 <0>      -0.1900
   13 C13       3.2628    -1.3093    -5.7269 C.ar   1 <0>      -0.0400
   14 C14       2.6936    -2.0821    -4.7153 C.ar   1 <0>      -0.2300
   15 C15       2.0282    -1.4542    -3.5585 C.2    1 <0>       0.4200
   16 O16       1.9539    -0.2429    -3.4490 O.2    1 <0>      -0.5300
   17 H17       1.0039     1.9031     0.0027 H      1 <0>       0.0600
   18 H18      -0.5459     1.8868    -0.8726 H      1 <0>       0.0600
   19 H19      -0.5289     1.8773     0.9072 H      1 <0>       0.0700
   20 H20       0.5293    -0.3651     0.8851 H      1 <0>       0.0600
   21 H21      -1.0205    -0.3814     0.0098 H      1 <0>       0.0600
   22 H22       1.1524    -4.3766    -1.9731 H      1 <0>       0.1400
   23 H23       3.4052    -5.1668    -5.9427 H      1 <0>       0.1200
   24 H24       4.3986    -3.7888    -7.7110 H      1 <0>       0.1100
   25 H25       4.3138    -1.3346    -7.5817 H      1 <0>       0.1100
   26 H26       3.2267    -0.2313    -5.6725 H      1 <0>       0.1200
@<TRIPOS>BOND
   1    1    2 1
   2    1   17 1
   3    1   18 1
   4    1   19 1
   5    2    3 1
   6    2   20 1
   7    2   21 1
   8    3    4 1
   9    4    5 2
  10    4    6 1
  11    6   15 1
  12    6    7 2
  13    7    8 1
  14    7   22 1
  15    8    9 1
  16    9   14 ar
  17    9   10 ar
  18   10   11 ar
  19   10   23 1
  20   11   12 ar
  21   11   24 1
  22   12   13 ar
  23   12   25 1
  24   13   14 ar
  25   13   26 1
  26   14   15 1
  27   15   16 2
