@<TRIPOS>MOLECULE
ZINC000000056648
  31   31    0    0    0
SMALL
USER_CHARGES
NO_NAME
@<TRIPOS>ATOM
    1 C1       -1.3497     2.0719    -0.3820 C.3    1 <0>      -0.1500
    2 C2       -0.9303     0.6079    -0.2353 C.3    1 <0>       0.0600
    3 O3       -2.1112    -0.2370    -0.2430 O.3    1 <0>      -0.3500
    4 C4       -1.9151    -1.5594    -0.1224 C.2    1 <0>       0.4400
    5 O5       -0.7940    -1.9965    -0.0139 O.2    1 <0>      -0.4800
    6 C6       -3.0935    -2.4989    -0.1222 C.3    1 <0>       0.1300
    7 C7       -4.0201    -2.1545     1.0455 C.3    1 <0>      -0.1400
    8 C8       -3.8587    -2.3573    -1.4395 C.3    1 <0>      -0.2000
    9 O9       -2.6305    -3.8436     0.0176 O.3    1 <0>      -0.2800
   10 C10      -1.8076    -4.3171    -0.9550 C.ar   1 <0>       0.1400
   11 C11      -1.3504    -3.4680    -1.9521 C.ar   1 <0>      -0.1800
   12 C12      -0.5141    -3.9512    -2.9398 C.ar   1 <0>      -0.0700
   13 C13      -0.1328    -5.2813    -2.9352 C.ar   1 <0>      -0.0700
   14 Cl14      0.9177    -5.8863    -4.1778 Cl     1 <0>      -0.0700
   15 C15      -0.5874    -6.1297    -1.9412 C.ar   1 <0>      -0.0700
   16 C16      -1.4193    -5.6489    -0.9485 C.ar   1 <0>      -0.1300
   17 H17      -0.4632     2.7062    -0.3762 H      1 <0>       0.0800
   18 H18      -1.8848     2.2041    -1.3224 H      1 <0>       0.0700
   19 H19      -1.9998     2.3486     0.4480 H      1 <0>       0.0700
   20 H20      -0.2802     0.3312    -1.0653 H      1 <0>       0.0700
   21 H21      -0.3951     0.4757     0.7050 H      1 <0>       0.0700
   22 H22      -4.3060    -1.1044     0.9851 H      1 <0>       0.0900
   23 H23      -4.9132    -2.7775     0.9966 H      1 <0>       0.0900
   24 H24      -3.5014    -2.3362     1.9868 H      1 <0>       0.0800
   25 H25      -3.2743    -2.7961    -2.2482 H      1 <0>       0.0800
   26 H26      -4.8155    -2.8737    -1.3611 H      1 <0>       0.0900
   27 H27      -4.0317    -1.3015    -1.6475 H      1 <0>       0.0900
   28 H28      -1.6483    -2.4299    -1.9565 H      1 <0>       0.1300
   29 H29      -0.1579    -3.2904    -3.7163 H      1 <0>       0.1300
   30 H30      -0.2885    -7.1675    -1.9390 H      1 <0>       0.1400
   31 H31      -1.7739    -6.3114    -0.1728 H      1 <0>       0.1400
@<TRIPOS>BOND
   1    1    2 1
   2    1   17 1
   3    1   18 1
   4    1   19 1
   5    2    3 1
   6    2   20 1
   7    2   21 1
   8    3    4 1
   9    4    5 2
  10    4    6 1
  11    6    7 1
  12    6    8 1
  13    6    9 1
  14    7   22 1
  15    7   23 1
  16    7   24 1
  17    8   25 1
  18    8   26 1
  19    8   27 1
  20    9   10 1
  21   10   16 ar
  22   10   11 ar
  23   11   12 ar
  24   11   28 1
  25   12   13 ar
  26   12   29 1
  27   13   14 1
  28   13   15 ar
  29   15   16 ar
  30   15   30 1
  31   16   31 1
