@<TRIPOS>MOLECULE
ZINC000019230152
  22   21    0    0    0
SMALL
USER_CHARGES
NO_NAME
@<TRIPOS>ATOM
    1 N1       -0.0116     1.0048     0.0076 N.4    1 <0>      -0.6400
    2 H2        0.0021    -0.0041     0.0020 H      1 <0>       0.4400
    3 H3        0.9350     1.3541     0.0004 H      1 <0>       0.4500
    4 H4       -0.4996     1.3391    -0.8099 H      1 <0>       0.4400
    5 C5       -0.6992     1.4786     1.2162 C.3    1 <0>      -0.0100
    6 C6       -2.1346     0.9490     1.2270 C.3    1 <0>       0.0300
    7 N7       -2.8222     1.4227     2.4357 N.3    1 <0>      -0.6800
    8 C8       -4.2063     0.9327     2.4802 C.3    1 <0>       0.0300
    9 C9       -4.8883     1.4455     3.7501 C.3    1 <0>      -0.0100
   10 N10      -6.2724     0.9555     3.7946 N.4    1 <0>      -0.6400
   11 H11      -6.2721    -0.0535     3.7971 H      1 <0>       0.4400
   12 H12      -6.7222     1.2937     4.6321 H      1 <0>       0.4500
   13 H13      -6.7737     1.2896     2.9852 H      1 <0>       0.4400
   14 H14      -0.1720     1.1175     2.0992 H      1 <0>       0.1400
   15 H15      -0.7140     2.5685     1.2222 H      1 <0>       0.1500
   16 H16      -2.6618     1.3101     0.3440 H      1 <0>       0.1000
   17 H17      -2.1198    -0.1409     1.2210 H      1 <0>       0.0600
   18 H18      -2.3170     1.1556     3.2672 H      1 <0>       0.3600
   19 H19      -4.7478     1.2936     1.6058 H      1 <0>       0.1000
   20 H20      -4.2059    -0.1573     2.4829 H      1 <0>       0.0600
   21 H21      -4.3468     1.0846     4.6245 H      1 <0>       0.1400
   22 H22      -4.8887     2.5355     3.7474 H      1 <0>       0.1500
@<TRIPOS>BOND
   1    1    2 1
   2    1    3 1
   3    1    4 1
   4    1    5 1
   5    5    6 1
   6    5   14 1
   7    5   15 1
   8    6    7 1
   9    6   16 1
  10    6   17 1
  11    7    8 1
  12    7   18 1
  13    8    9 1
  14    8   19 1
  15    8   20 1
  16    9   10 1
  17    9   21 1
  18    9   22 1
  19   10   11 1
  20   10   12 1
  21   10   13 1
