@<TRIPOS>MOLECULE
ZINC000012360535
  21   22    0    0    0
SMALL
USER_CHARGES
NO_NAME
@<TRIPOS>ATOM
    1 N1       -0.0164     1.3618     0.0095 N.3    1 <0>      -0.6100
    2 N2        0.0021    -0.0041     0.0020 N.pl3  1 <0>      -0.5100
    3 C3        0.6908    -0.6927     0.9868 C.ar   1 <0>       0.4700
    4 C4        0.7236    -2.1058     0.9884 C.ar   1 <0>      -0.1100
    5 C5        0.0777    -2.8790     0.0182 C.ar   1 <0>      -0.0700
    6 C6        0.1547    -4.2390     0.0854 C.ar   1 <0>      -0.0800
    7 C7        0.8654    -4.8690     1.1044 C.ar   1 <0>      -0.0500
    8 C8        1.5061    -4.1457     2.0661 C.ar   1 <0>      -0.0700
    9 C9        1.4485    -2.7466     2.0267 C.ar   1 <0>      -0.0400
   10 C10       2.0834    -1.9315     2.9820 C.ar   1 <0>       0.1500
   11 N11       1.9828    -0.6266     2.8760 N.ar   1 <0>      -0.2400
   12 N12       1.3343    -0.0409     1.9395 N.ar   1 <0>      -0.3600
   13 H13       1.3086     0.9287     1.9331 H      1 <0>       0.4700
   14 H14       0.9205     1.7362     0.0026 H      1 <0>       0.3600
   15 H15      -0.5549     1.7204    -0.7648 H      1 <0>       0.4000
   16 H16      -0.4671    -0.4917    -0.6930 H      1 <0>       0.4400
   17 H17      -0.4773    -2.4034    -0.7769 H      1 <0>       0.1500
   18 H18      -0.3436    -4.8370    -0.6631 H      1 <0>       0.1600
   19 H19       0.9093    -5.9477     1.1332 H      1 <0>       0.1600
   20 H20       2.0531    -4.6468     2.8511 H      1 <0>       0.1700
   21 H21       2.6455    -2.3732     3.7915 H      1 <0>       0.2200
@<TRIPOS>BOND
   1    1    2 1
   2    1   14 1
   3    1   15 1
   4    2    3 1
   5    2   16 1
   6    3   12 ar
   7    3    4 ar
   8    4    9 ar
   9    4    5 ar
  10    5    6 ar
  11    5   17 1
  12    6    7 ar
  13    6   18 1
  14    7    8 ar
  15    7   19 1
  16    8    9 ar
  17    8   20 1
  18    9   10 ar
  19   10   11 ar
  20   10   21 1
  21   11   12 ar
  22   12   13 1
