@<TRIPOS>MOLECULE
ZINC000001531391
55    54    1     0     0
SMALL
USER_CHARGES
@<TRIPOS>ATOM
1      C1      0.4942    1.5805    0.0258 C.3      1 ZINC000001531391   -0.1200
2      C2      0.2199    0.0987    0.0375 C.2      1 ZINC000001531391   -0.1300
3      C3      0.3751   -0.6863    1.3145 C.3      1 ZINC000001531391   -0.1200
4      C4     -0.1535   -0.5070   -1.0624 C.2      1 ZINC000001531391   -0.1700
5      C5     -0.1857    0.2494   -2.3654 C.3      1 ZINC000001531391   -0.0900
6      C6      0.6527   -0.4939   -3.4074 C.3      1 ZINC000001531391   -0.0800
7      C7      0.6205    0.2625   -4.7104 C.2      1 ZINC000001531391   -0.1300
8      C8     -0.5131    0.0461   -5.6795 C.3      1 ZINC000001531391   -0.1200
9      C9      1.5780    1.1081   -5.0007 C.2      1 ZINC000001531391   -0.1600
10     C10     1.4823    1.9579   -6.2416 C.3      1 ZINC000001531391   -0.0900
11     C11     1.6350    3.4324   -5.8629 C.3      1 ZINC000001531391   -0.0800
12     C12     1.5393    4.2822   -7.1038 C.2      1 ZINC000001531391   -0.1300
13     C13     2.7635    4.5218   -7.9493 C.3      1 ZINC000001531391   -0.1200
14     C14     0.3918    4.8126   -7.4474 C.2      1 ZINC000001531391   -0.1600
15     C15     0.2693    5.5669   -8.7463 C.3      1 ZINC000001531391   -0.0900
16     C16    -0.8717    4.9734   -9.5751 C.3      1 ZINC000001531391   -0.0800
17     C17    -0.9943    5.7277  -10.8739 C.2      1 ZINC000001531391   -0.1100
18     C18    -1.8038    6.9974  -10.9344 C.3      1 ZINC000001531391   -0.1300
19     C19    -0.3971    5.2797  -11.9504 C.2      1 ZINC000001531391   -0.1600
20     C20    -0.5197    6.0340  -13.2493 C.3      1 ZINC000001531391    0.1000
21     O21     0.7645    6.1266  -13.8693 O.3      1 ZINC000001531391   -0.5700
22     H22     0.7025    1.9194    1.0406 H        1 ZINC000001531391    0.0600
23     H23     1.3557    1.7855   -0.6097 H        1 ZINC000001531391    0.0700
24     H24    -0.3771    2.1083   -0.3619 H        1 ZINC000001531391    0.0700
25     H25     0.6897   -0.0178    2.1160 H        1 ZINC000001531391    0.0600
26     H26    -0.5781   -1.1450    1.5772 H        1 ZINC000001531391    0.0600
27     H27     1.1260   -1.4638    1.1741 H        1 ZINC000001531391    0.0700
28     H28    -0.4383   -1.5484   -1.0353 H        1 ZINC000001531391    0.1100
29     H29    -1.2151    0.3268   -2.7153 H        1 ZINC000001531391    0.0700
30     H30     0.2233    1.2486   -2.2157 H        1 ZINC000001531391    0.0700
31     H31     1.6821   -0.5712   -3.0575 H        1 ZINC000001531391    0.0700
32     H32     0.2438   -1.4931   -3.5571 H        1 ZINC000001531391    0.0700
33     H33    -1.1588   -0.7510   -5.3111 H        1 ZINC000001531391    0.0600
34     H34    -1.0899    0.9660   -5.7751 H        1 ZINC000001531391    0.0700
35     H35    -0.1104   -0.2331   -6.6531 H        1 ZINC000001531391    0.0700
36     H36     2.4361    1.1962   -4.3508 H        1 ZINC000001531391    0.1100
37     H37     2.2740    1.6772   -6.9362 H        1 ZINC000001531391    0.0700
38     H38     0.5124    1.8027   -6.7142 H        1 ZINC000001531391    0.0700
39     H39     0.8433    3.7131   -5.1683 H        1 ZINC000001531391    0.0700
40     H40     2.6049    3.5876   -5.3903 H        1 ZINC000001531391    0.0700
41     H41     3.5996    3.9485   -7.5488 H        1 ZINC000001531391    0.0600
42     H42     2.5648    4.2071   -8.9738 H        1 ZINC000001531391    0.0700
43     H43     3.0116    5.5831   -7.9369 H        1 ZINC000001531391    0.0700
44     H44    -0.4664    4.7093   -6.7999 H        1 ZINC000001531391    0.1100
45     H45     0.0598    6.6163   -8.5387 H        1 ZINC000001531391    0.0700
46     H46     1.2029    5.4860   -9.3030 H        1 ZINC000001531391    0.0700
47     H47    -0.6623    3.9241   -9.7827 H        1 ZINC000001531391    0.0700
48     H48    -1.8054    5.0544   -9.0184 H        1 ZINC000001531391    0.0700
49     H49    -1.1611    7.8490  -10.7113 H        1 ZINC000001531391    0.0700
50     H50    -2.2254    7.1122  -11.9330 H        1 ZINC000001531391    0.0700
51     H51    -2.6103    6.9493  -10.2028 H        1 ZINC000001531391    0.0700
52     H52     0.1830    4.3698  -11.9070 H        1 ZINC000001531391    0.1100
53     H53    -1.2060    5.5071  -13.9121 H        1 ZINC000001531391    0.0500
54     H54    -0.9015    7.0359  -13.0530 H        1 ZINC000001531391    0.0600
55     H55     0.7611    6.6009  -14.7120 H        1 ZINC000001531391    0.3800
@<TRIPOS>BOND
1     1     2     1
2     1     22    1
3     1     23    1
4     1     24    1
5     2     3     1
6     2     4     2
7     3     25    1
8     3     26    1
9     3     27    1
10    4     5     1
11    4     28    1
12    5     6     1
13    5     29    1
14    5     30    1
15    6     7     1
16    6     31    1
17    6     32    1
18    7     8     1
19    7     9     2
20    8     33    1
21    8     34    1
22    8     35    1
23    9     10    1
24    9     36    1
25    10    11    1
26    10    37    1
27    10    38    1
28    11    12    1
29    11    39    1
30    11    40    1
31    12    13    1
32    12    14    2
33    13    41    1
34    13    42    1
35    13    43    1
36    14    15    1
37    14    44    1
38    15    16    1
39    15    45    1
40    15    46    1
41    16    17    1
42    16    47    1
43    16    48    1
44    17    18    1
45    17    19    2
46    18    49    1
47    18    50    1
48    18    51    1
49    19    20    1
50    19    52    1
51    20    21    1
52    20    53    1
53    20    54    1
54    21    55    1
@<TRIPOS>SUBSTRUCTURE
1   ZINC000001531391 1     RESIDUE    1   A     ZIN   1
