@<TRIPOS>MOLECULE
ZINC000006745792
57    60    1     0     0
SMALL
USER_CHARGES
@<TRIPOS>ATOM
1      C1      3.7302   -3.8729   -1.9523 C.3      1 ZINC000006745792    0.0300
2      O2      2.5069   -3.5308   -1.2976 O.3      1 ZINC000006745792   -0.3000
3      C3      1.8874   -2.3903   -1.7036 C.ar     1 ZINC000006745792    0.1700
4      C4      2.4432   -1.6215   -2.7142 C.ar     1 ZINC000006745792   -0.2300
5      C5      1.8111   -0.4570   -3.1285 C.ar     1 ZINC000006745792    0.2400
6      N6      2.3734    0.3193   -4.1490 N.pl3    1 ZINC000006745792   -0.6300
7      C7      3.0771   -0.2904   -5.1759 C.ar     1 ZINC000006745792    0.5800
8      N8      3.1149   -1.6127   -5.2357 N.ar     1 ZINC000006745792   -0.5600
9      C9      3.7768   -2.2328   -6.2025 C.ar     1 ZINC000006745792    0.1900
10     C10     4.4351   -1.4829   -7.1592 C.ar     1 ZINC000006745792   -0.1000
11     F11     5.1186   -2.0831   -8.1582 F        1 ZINC000006745792   -0.1300
12     C12     4.3768   -0.0888   -7.0692 C.ar     1 ZINC000006745792    0.4400
13     N13     5.0223    0.7052   -8.0069 N.pl3    1 ZINC000006745792   -0.6300
14     C14     5.0490    2.0898   -7.8479 C.ar     1 ZINC000006745792    0.3800
15     C15     5.7896    2.8662   -8.7296 C.ar     1 ZINC000006745792   -0.2000
16     C16     5.8112    4.2434   -8.5664 C.ar     1 ZINC000006745792   -0.0300
17     C17     5.0867    4.7938   -7.5209 C.ar     1 ZINC000006745792    0.0100
18     O18     5.0706    6.1380   -7.3173 O.3      1 ZINC000006745792   -0.2900
19     C19     3.8647    6.6916   -6.7831 C.3      1 ZINC000006745792    0.1000
20     C20     4.1298    8.1184   -6.2984 C.3      1 ZINC000006745792   -0.1300
21     C21     2.7888    6.7144   -7.8707 C.3      1 ZINC000006745792   -0.1700
22     C22     3.3917    5.8480   -5.6267 C.2      1 ZINC000006745792    0.5100
23     O23     2.7894    6.3602   -4.7070 O.2      1 ZINC000006745792   -0.4900
24     N24     3.6399    4.5210   -5.6175 N.am     1 ZINC000006745792   -0.6400
25     C25     4.3654    3.9566   -6.6707 C.ar     1 ZINC000006745792    0.3400
26     N26     4.3632    2.6473   -6.8609 N.ar     1 ZINC000006745792   -0.4700
27     N27     3.6901    0.4646   -6.0753 N.ar     1 ZINC000006745792   -0.5300
28     C28     0.6216   -0.0619   -2.5316 C.ar     1 ZINC000006745792   -0.2600
29     C29     0.0645   -0.8296   -1.5209 C.ar     1 ZINC000006745792    0.1700
30     O30    -1.1008   -0.4425   -0.9364 O.3      1 ZINC000006745792   -0.3000
31     C31    -1.6959    0.7659   -1.4136 C.3      1 ZINC000006745792    0.0200
32     C32     0.6939   -1.9983   -1.1093 C.ar     1 ZINC000006745792    0.0100
33     O33     0.1470   -2.7533   -0.1167 O.3      1 ZINC000006745792   -0.3100
34     C34    -0.7735   -3.7733   -0.5096 C.3      1 ZINC000006745792    0.0300
35     H35     3.5475   -4.0027   -3.0190 H        1 ZINC000006745792    0.0600
36     H36     4.4578   -3.0752   -1.8027 H        1 ZINC000006745792    0.0500
37     H37     4.1184   -4.8018   -1.5345 H        1 ZINC000006745792    0.1000
38     H38     3.3684   -1.9284   -3.1792 H        1 ZINC000006745792    0.1500
39     H39     2.2706    1.2837   -4.1375 H        1 ZINC000006745792    0.4300
40     H40     3.8017   -3.3118   -6.2422 H        1 ZINC000006745792    0.1800
41     H41     5.4549    0.2966   -8.7730 H        1 ZINC000006745792    0.4400
42     H42     6.3428    2.4028   -9.5331 H        1 ZINC000006745792    0.1500
43     H43     6.3787    4.8713   -9.2373 H        1 ZINC000006745792    0.1600
44     H44     4.4707    8.7288   -7.1346 H        1 ZINC000006745792    0.0800
45     H45     3.2109    8.5404   -5.8913 H        1 ZINC000006745792    0.0900
46     H46     4.8966    8.1024   -5.5239 H        1 ZINC000006745792    0.0700
47     H47     2.6002    5.6981   -8.2165 H        1 ZINC000006745792    0.0600
48     H48     1.8698    7.1362   -7.4638 H        1 ZINC000006745792    0.0800
49     H49     3.1300    7.3252   -8.7066 H        1 ZINC000006745792    0.0900
50     H50     3.3191    3.9663   -4.8893 H        1 ZINC000006745792    0.4200
51     H51     0.1303    0.8440   -2.8547 H        1 ZINC000006745792    0.1400
52     H52    -2.6174    0.9587   -0.8643 H        1 ZINC000006745792    0.1000
53     H53    -1.0041    1.5950   -1.2649 H        1 ZINC000006745792    0.0600
54     H54    -1.9200    0.6657   -2.4756 H        1 ZINC000006745792    0.0600
55     H55    -1.6165   -3.3206   -1.0315 H        1 ZINC000006745792    0.0400
56     H56    -0.2726   -4.4791   -1.1723 H        1 ZINC000006745792    0.0400
57     H57    -1.1334   -4.2984    0.3751 H        1 ZINC000006745792    0.0900
@<TRIPOS>BOND
1     1     2     1
2     1     35    1
3     1     36    1
4     1     37    1
5     2     3     1
6     3     32    ar
7     3     4     ar
8     4     5     ar
9     4     38    1
10    5     6     1
11    5     28    ar
12    6     7     1
13    6     39    1
14    7     27    ar
15    7     8     ar
16    8     9     ar
17    9     10    ar
18    9     40    1
19    10    11    1
20    10    12    ar
21    12    13    1
22    12    27    ar
23    13    14    1
24    13    41    1
25    14    26    ar
26    14    15    ar
27    15    16    ar
28    15    42    1
29    16    17    ar
30    16    43    1
31    17    25    ar
32    17    18    1
33    18    19    1
34    19    20    1
35    19    21    1
36    19    22    1
37    20    44    1
38    20    45    1
39    20    46    1
40    21    47    1
41    21    48    1
42    21    49    1
43    22    23    2
44    22    24    am
45    24    25    1
46    24    50    1
47    25    26    ar
48    28    29    ar
49    28    51    1
50    29    30    1
51    29    32    ar
52    30    31    1
53    31    52    1
54    31    53    1
55    31    54    1
56    32    33    1
57    33    34    1
58    34    55    1
59    34    56    1
60    34    57    1
@<TRIPOS>SUBSTRUCTURE
1   ZINC000006745792 1     RESIDUE    1   A     ZIN   1
