@<TRIPOS>MOLECULE
ZINC000014855605
66    71    1     0     0
SMALL
USER_CHARGES
@<TRIPOS>ATOM
1      C1     -1.8626    3.2111   -1.9122 C.3      1 ZINC000014855605   -0.1500
2      C2     -1.3602    1.7686   -1.8246 C.3      1 ZINC000014855605   -0.0900
3      H3     -0.9702    1.4584   -2.7940 H        1 ZINC000014855605    0.0800
4      C4     -2.5141    0.8474   -1.4171 C.3      1 ZINC000014855605   -0.1200
5      C5     -2.0734   -0.6078   -1.5806 C.3      1 ZINC000014855605   -0.0500
6      C6     -0.7417   -0.8044   -0.8670 C.2      1 ZINC000014855605   -0.0500
7      C7      0.0562    0.2107   -0.5132 C.2      1 ZINC000014855605   -0.1800
8      C8     -0.2526    1.6747   -0.7728 C.3      1 ZINC000014855605   -0.0400
9      S9      1.5120   -0.3635    0.2887 S.3      1 ZINC000014855605    0.1700
10     C10     1.0227   -2.0320    0.1418 C.ar     1 ZINC000014855605    0.0800
11     N11     1.6550   -3.1398    0.5478 N.ar     1 ZINC000014855605   -0.4600
12     C12     1.0597   -4.3050    0.3117 C.ar     1 ZINC000014855605    0.3800
13     C13     1.7462   -5.5421    0.7549 C.ar     1 ZINC000014855605   -0.1000
14     C14     2.9810   -5.4749    1.4068 C.ar     1 ZINC000014855605   -0.0300
15     C15     3.5808   -6.6588    1.8006 C.ar     1 ZINC000014855605   -0.1800
16     C16     2.9454   -7.8588    1.5389 C.ar     1 ZINC000014855605    0.1200
17     N17     1.7801   -7.8911    0.9212 N.ar     1 ZINC000014855605   -0.4900
18     C18     1.1681   -6.7912    0.5334 C.ar     1 ZINC000014855605    0.1500
19     N19    -0.1122   -4.4249   -0.2967 N.ar     1 ZINC000014855605   -0.5500
20     C20    -0.8101   -3.3788   -0.7331 C.ar     1 ZINC000014855605    0.4100
21     N21    -2.0320   -3.5214   -1.3659 N.3      1 ZINC000014855605   -0.4800
22     C22    -3.0026   -4.1943   -0.4914 C.3      1 ZINC000014855605    0.0600
23     C23    -4.3595   -4.2613   -1.1962 C.3      1 ZINC000014855605    0.0600
24     N24    -4.2128   -4.9823   -2.4683 N.3      1 ZINC000014855605   -0.5100
25     C25    -5.5102   -5.1337   -3.1403 C.3      1 ZINC000014855605    0.1100
26     H26    -5.8940   -4.1512   -3.4151 H        1 ZINC000014855605    0.0700
27     C27    -5.3384   -5.9711   -4.3815 C.2      1 ZINC000014855605    0.5200
28     N28    -6.1743   -5.8072   -5.4259 N.am     1 ZINC000014855605   -0.8500
29     O29    -4.4480   -6.7924   -4.4404 O.2      1 ZINC000014855605   -0.5100
30     C30    -6.4826   -5.8102   -2.2086 C.ar     1 ZINC000014855605   -0.0900
31     C31    -6.0958   -6.9343   -1.5031 C.ar     1 ZINC000014855605   -0.0800
32     C32    -6.9877   -7.5548   -0.6485 C.ar     1 ZINC000014855605   -0.1200
33     C33    -8.2662   -7.0509   -0.4990 C.ar     1 ZINC000014855605   -0.1100
34     C34    -8.6527   -5.9263   -1.2038 C.ar     1 ZINC000014855605   -0.1200
35     C35    -7.7594   -5.3033   -2.0552 C.ar     1 ZINC000014855605   -0.1100
36     C36    -3.2421   -4.3094   -3.3428 C.3      1 ZINC000014855605    0.0600
37     C37    -1.8852   -4.2424   -2.6380 C.3      1 ZINC000014855605    0.0700
38     C38    -0.2192   -2.1046   -0.5066 C.ar     1 ZINC000014855605   -0.1500
39     H39    -1.0393    3.8658   -2.1982 H        1 ZINC000014855605    0.0600
40     H40    -2.6541    3.2755   -2.6588 H        1 ZINC000014855605    0.0600
41     H41    -2.2521    3.5198   -0.9421 H        1 ZINC000014855605    0.0600
42     H42    -2.7789    1.0333   -0.3762 H        1 ZINC000014855605    0.0700
43     H43    -3.3772    1.0406   -2.0541 H        1 ZINC000014855605    0.0700
44     H44    -2.8227   -1.2674   -1.1431 H        1 ZINC000014855605    0.0900
45     H45    -1.9570   -0.8370   -2.6399 H        1 ZINC000014855605    0.0800
46     H46     0.6435    2.1779   -1.1357 H        1 ZINC000014855605    0.0800
47     H47    -0.5892    2.1459    0.1507 H        1 ZINC000014855605    0.0900
48     H48     3.4551   -4.5235    1.5981 H        1 ZINC000014855605    0.1500
49     H49     4.5349   -6.6454    2.3064 H        1 ZINC000014855605    0.1400
50     H50     3.4105   -8.7843    1.8447 H        1 ZINC000014855605    0.1600
51     H51     0.2148   -6.8581    0.0303 H        1 ZINC000014855605    0.1700
52     H52    -2.6561   -5.2044   -0.2729 H        1 ZINC000014855605    0.0700
53     H53    -3.1031   -3.6349    0.4386 H        1 ZINC000014855605    0.0800
54     H54    -5.0736   -4.7857   -0.5613 H        1 ZINC000014855605    0.0900
55     H55    -4.7187   -3.2507   -1.3903 H        1 ZINC000014855605    0.0500
56     H56    -6.8865   -5.1503   -5.3788 H        1 ZINC000014855605    0.4000
57     H57    -6.0637   -6.3462   -6.2248 H        1 ZINC000014855605    0.4000
58     H58    -5.0969   -7.3279   -1.6199 H        1 ZINC000014855605    0.1300
59     H59    -6.6857   -8.4334   -0.0978 H        1 ZINC000014855605    0.1200
60     H60    -8.9633   -7.5361    0.1682 H        1 ZINC000014855605    0.1200
61     H61    -9.6517   -5.5328   -1.0873 H        1 ZINC000014855605    0.1200
62     H62    -8.0614   -4.4247   -2.6058 H        1 ZINC000014855605    0.1200
63     H63    -3.1416   -4.8689   -4.2729 H        1 ZINC000014855605    0.0900
64     H64    -3.5887   -3.2993   -3.5613 H        1 ZINC000014855605    0.0500
65     H65    -1.1711   -3.7180   -3.2729 H        1 ZINC000014855605    0.0800
66     H66    -1.5260   -5.2530   -2.4439 H        1 ZINC000014855605    0.0700
@<TRIPOS>BOND
1     1     2     1
2     1     39    1
3     1     40    1
4     1     41    1
5     2     3     1
6     2     8     1
7     2     4     1
8     4     5     1
9     4     42    1
10    4     43    1
11    5     6     1
12    5     44    1
13    5     45    1
14    6     38    1
15    6     7     2
16    7     8     1
17    7     9     1
18    8     46    1
19    8     47    1
20    9     10    1
21    10    38    ar
22    10    11    ar
23    11    12    ar
24    12    13    1
25    12    19    ar
26    13    18    ar
27    13    14    ar
28    14    15    ar
29    14    48    1
30    15    16    ar
31    15    49    1
32    16    17    ar
33    16    50    1
34    17    18    ar
35    18    51    1
36    19    20    ar
37    20    21    1
38    20    38    ar
39    21    37    1
40    21    22    1
41    22    23    1
42    22    52    1
43    22    53    1
44    23    24    1
45    23    54    1
46    23    55    1
47    24    25    1
48    24    36    1
49    25    26    1
50    25    27    1
51    25    30    1
52    27    28    am
53    27    29    2
54    28    56    1
55    28    57    1
56    30    35    ar
57    30    31    ar
58    31    32    ar
59    31    58    1
60    32    33    ar
61    32    59    1
62    33    34    ar
63    33    60    1
64    34    35    ar
65    34    61    1
66    35    62    1
67    36    37    1
68    36    63    1
69    36    64    1
70    37    65    1
71    37    66    1
@<TRIPOS>SUBSTRUCTURE
1   ZINC000014855605 1     RESIDUE    1   A     ZIN   1
