@<TRIPOS>MOLECULE
ZINC000040424450
  44   48    0    0    0
SMALL
USER_CHARGES
NO_NAME
@<TRIPOS>ATOM
    1 C1       -0.0187     1.5258     0.0104 C.3    1 <0>      -0.1700
    2 C2        0.0021    -0.0041     0.0020 C.3    1 <0>       0.1900
    3 H3       -1.0205    -0.3814     0.0098 H      1 <0>       0.0900
    4 N4        0.7106    -0.4894     1.1889 N.pl3  1 <0>      -0.7200
    5 C5        0.0289    -0.6383     2.3949 C.ar   1 <0>       0.3800
    6 N6        0.6803    -1.0731     3.4649 N.ar   1 <0>      -0.4900
    7 C7        0.0912    -1.2340     4.6326 C.ar   1 <0>       0.1800
    8 C8       -1.2575    -0.9488     4.7876 C.ar   1 <0>      -0.0300
    9 O9       -2.1160    -1.0115     5.8254 O.3    1 <0>      -0.0700
   10 N10      -3.3992    -0.5930     5.4045 N.2    1 <0>      -0.2600
   11 C11      -3.3635    -0.2728     4.1380 C.2    1 <0>       0.1700
   12 C12      -4.5001     0.2132     3.3209 C.ar   1 <0>      -0.0300
   13 C13      -4.2847     1.1525     2.3134 C.ar   1 <0>      -0.0700
   14 C14      -5.3436     1.6044     1.5531 C.ar   1 <0>      -0.1000
   15 C15      -6.6244     1.1266     1.7873 C.ar   1 <0>       0.0600
   16 O16      -7.8166     1.4092     1.1863 O.3    1 <0>      -0.3000
   17 C17      -8.6994     0.3341     1.5577 C.3    1 <0>       0.2100
   18 O18      -8.1762    -0.1180     2.8205 O.3    1 <0>      -0.3000
   19 C19      -6.8456     0.1865     2.7936 C.ar   1 <0>       0.0300
   20 C20      -5.7867    -0.2725     3.5544 C.ar   1 <0>      -0.0600
   21 C21      -1.9839    -0.4852     3.6760 C.ar   1 <0>      -0.1000
   22 C22      -1.3204    -0.3244     2.4611 C.ar   1 <0>      -0.1700
   23 C23       0.7074    -0.4901    -1.2379 C.ar   1 <0>      -0.0900
   24 C24       2.0889    -0.5108    -1.2839 C.ar   1 <0>      -0.1100
   25 C25       2.7359    -0.9566    -2.4212 C.ar   1 <0>      -0.1100
   26 C26       2.0015    -1.3821    -3.5123 C.ar   1 <0>      -0.1200
   27 C27       0.6201    -1.3622    -3.4659 C.ar   1 <0>      -0.1200
   28 C28      -0.0269    -0.9205    -2.3270 C.ar   1 <0>      -0.1100
   29 H29       1.0039     1.9031     0.0027 H      1 <0>       0.0600
   30 H30      -0.5459     1.8868    -0.8726 H      1 <0>       0.0700
   31 H31      -0.5289     1.8773     0.9072 H      1 <0>       0.0600
   32 H32       1.6544    -0.7070     1.1351 H      1 <0>       0.4100
   33 H33       0.6632    -1.5912     5.4761 H      1 <0>       0.1800
   34 H34      -3.2887     1.5268     2.1282 H      1 <0>       0.1500
   35 H35      -5.1747     2.3325     0.7736 H      1 <0>       0.1500
   36 H36      -9.7196     0.6995     1.6746 H      1 <0>       0.1400
   37 H37      -8.6604    -0.4660     0.8185 H      1 <0>       0.0900
   38 H38      -5.9558    -1.0040     4.3306 H      1 <0>       0.1400
   39 H39      -1.8465     0.0343     1.5888 H      1 <0>       0.1500
   40 H40       2.6626    -0.1783    -0.4315 H      1 <0>       0.1200
   41 H41       3.8152    -0.9721    -2.4575 H      1 <0>       0.1300
   42 H42       2.5070    -1.7297    -4.4012 H      1 <0>       0.1200
   43 H43       0.0463    -1.6944    -4.3185 H      1 <0>       0.1300
   44 H44      -1.1062    -0.9050    -2.2908 H      1 <0>       0.1200
@<TRIPOS>BOND
   1    1    2 1
   2    1   29 1
   3    1   30 1
   4    1   31 1
   5    2    3 1
   6    2    4 1
   7    2   23 1
   8    4    5 1
   9    4   32 1
  10    5   22 ar
  11    5    6 ar
  12    6    7 ar
  13    7    8 ar
  14    7   33 1
  15    8   21 ar
  16    8    9 1
  17    9   10 1
  18   10   11 2
  19   11   12 1
  20   11   21 1
  21   12   20 ar
  22   12   13 ar
  23   13   14 ar
  24   13   34 1
  25   14   15 ar
  26   14   35 1
  27   15   19 ar
  28   15   16 1
  29   16   17 1
  30   17   18 1
  31   17   36 1
  32   17   37 1
  33   18   19 1
  34   19   20 ar
  35   20   38 1
  36   21   22 ar
  37   22   39 1
  38   23   28 ar
  39   23   24 ar
  40   24   25 ar
  41   24   40 1
  42   25   26 ar
  43   25   41 1
  44   26   27 ar
  45   26   42 1
  46   27   28 ar
  47   27   43 1
  48   28   44 1
