@<TRIPOS>MOLECULE
ZINC000003871358
32    34    1     0     0
SMALL
USER_CHARGES
@<TRIPOS>ATOM
1      C1     -0.0173    1.4248    0.0099 C.3      1 ZINC000003871358    0.0300
2      O2      0.0021   -0.0041    0.0020 O.3      1 ZINC000003871358   -0.3200
3      C3      0.6052   -0.6065   -1.0546 C.ar     1 ZINC000003871358    0.1400
4      C4      1.1723    0.1657   -2.0613 C.ar     1 ZINC000003871358   -0.2100
5      C5      1.7856   -0.4413   -3.1348 C.ar     1 ZINC000003871358   -0.0400
6      C6      1.8369   -1.8360   -3.2108 C.ar     1 ZINC000003871358   -0.0900
7      C7      2.4930   -2.4906   -4.3584 C.2      1 ZINC000003871358    0.1900
8      C8      2.5223   -3.8496   -4.4073 C.2      1 ZINC000003871358   -0.3200
9      C9      3.1469   -4.4951   -5.5006 C.2      1 ZINC000003871358    0.4300
10     O10     3.1914   -5.7123   -5.5771 O.2      1 ZINC000003871358   -0.5000
11     C11     3.7408   -3.6407   -6.5429 C.ar     1 ZINC000003871358   -0.3700
12     C12     4.3784   -4.1937   -7.6602 C.ar     1 ZINC000003871358    0.2200
13     O13     4.4608   -5.5408   -7.8032 O.3      1 ZINC000003871358   -0.4900
14     C14     4.9230   -3.3569   -8.6170 C.ar     1 ZINC000003871358   -0.2900
15     C15     4.8370   -1.9772   -8.4687 C.ar     1 ZINC000003871358    0.3200
16     O16     5.3751   -1.1647   -9.4139 O.3      1 ZINC000003871358   -0.7000
17     C17     4.2067   -1.4229   -7.3650 C.ar     1 ZINC000003871358   -0.2900
18     C18     3.6552   -2.2454   -6.3954 C.ar     1 ZINC000003871358    0.1900
19     O19     3.0336   -1.7222   -5.3174 O.3      1 ZINC000003871358   -0.2300
20     C20     1.2652   -2.6088   -2.1961 C.ar     1 ZINC000003871358   -0.0500
21     C21     0.6586   -1.9935   -1.1235 C.ar     1 ZINC000003871358   -0.1500
22     H22     1.0053    1.8021    0.0021 H        1 ZINC000003871358    0.0600
23     H23    -0.5445    1.7859   -0.8732 H        1 ZINC000003871358    0.0600
24     H24    -0.5275    1.7763    0.9067 H        1 ZINC000003871358    0.1000
25     H25     1.1319    1.2433   -2.0019 H        1 ZINC000003871358    0.1300
26     H26     2.2258    0.1595   -3.9169 H        1 ZINC000003871358    0.1400
27     H27     2.0723   -4.4319   -3.6168 H        1 ZINC000003871358    0.1500
28     H28     3.7173   -5.9316   -8.2824 H        1 ZINC000003871358    0.3800
29     H29     5.4166   -3.7761   -9.4813 H        1 ZINC000003871358    0.1100
30     H30     4.1460   -0.3497   -7.2606 H        1 ZINC000003871358    0.1200
31     H31     1.3026   -3.6867   -2.2510 H        1 ZINC000003871358    0.1400
32     H32     0.2166   -2.5898   -0.3390 H        1 ZINC000003871358    0.1400
@<TRIPOS>BOND
1     1     2     1
2     1     22    1
3     1     23    1
4     1     24    1
5     2     3     1
6     3     21    ar
7     3     4     ar
8     4     5     ar
9     4     25    1
10    5     6     ar
11    5     26    1
12    6     7     1
13    6     20    ar
14    7     19    1
15    7     8     2
16    8     9     1
17    8     27    1
18    9     10    2
19    9     11    1
20    11    18    ar
21    11    12    ar
22    12    13    1
23    12    14    ar
24    13    28    1
25    14    15    ar
26    14    29    1
27    15    16    1
28    15    17    ar
29    17    18    ar
30    17    30    1
31    18    19    1
32    20    21    ar
33    20    31    1
34    21    32    1
@<TRIPOS>SUBSTRUCTURE
1   ZINC000003871358 1     RESIDUE    1   A     ZIN   1
