@<TRIPOS>MOLECULE
ZINC000001616881
42    43    1     0     0
SMALL
USER_CHARGES
@<TRIPOS>ATOM
1      C1     -0.0173    1.4248    0.0099 C.3      1 ZINC000001616881    0.0300
2      O2      0.0021   -0.0041    0.0020 O.3      1 ZINC000001616881   -0.3100
3      C3     -1.2003   -0.6375    0.0101 C.ar     1 ZINC000001616881    0.1700
4      C4     -1.2526   -2.0211    0.0089 C.ar     1 ZINC000001616881   -0.1800
5      C5     -2.4891   -2.6709    0.0172 C.ar     1 ZINC000001616881    0.0200
6      C6     -2.5504   -4.1436    0.0164 C.2      1 ZINC000001616881   -0.1100
7      C7     -3.7401   -4.7660    0.0244 C.2      1 ZINC000001616881   -0.0900
8      C8     -3.8014   -6.2382    0.0237 C.ar     1 ZINC000001616881   -0.0600
9      C9     -2.6226   -6.9883    0.0204 C.ar     1 ZINC000001616881   -0.1000
10     C10    -2.6825   -8.3663    0.0196 C.ar     1 ZINC000001616881   -0.1700
11     C11    -3.9108   -9.0105    0.0221 C.ar     1 ZINC000001616881    0.1000
12     O12    -3.9638  -10.3689    0.0213 O.3      1 ZINC000001616881   -0.3100
13     C13    -2.7168  -11.0668    0.0179 C.3      1 ZINC000001616881    0.0200
14     C14    -5.0907   -8.2689    0.0258 C.ar     1 ZINC000001616881    0.1000
15     O15    -6.2930   -8.9044    0.0292 O.3      1 ZINC000001616881   -0.3100
16     C16    -7.4616   -8.0819    0.0329 C.3      1 ZINC000001616881    0.0200
17     C17    -5.0392   -6.8881    0.0320 C.ar     1 ZINC000001616881   -0.1600
18     C18    -3.6672   -1.9206    0.0267 C.ar     1 ZINC000001616881   -0.1800
19     C19    -3.6043   -0.5374    0.0278 C.ar     1 ZINC000001616881    0.1700
20     O20    -4.7499    0.1938    0.0371 O.3      1 ZINC000001616881   -0.3100
21     C21    -4.6117    1.6161    0.0377 C.3      1 ZINC000001616881    0.0300
22     C22    -2.3735    0.1035    0.0253 C.ar     1 ZINC000001616881   -0.3000
23     H23     1.0053    1.8021    0.0021 H        1 ZINC000001616881    0.1000
24     H24    -0.5445    1.7859   -0.8732 H        1 ZINC000001616881    0.0600
25     H25    -0.5275    1.7763    0.9067 H        1 ZINC000001616881    0.0600
26     H26    -0.3390   -2.5970    0.0012 H        1 ZINC000001616881    0.1400
27     H27    -1.6384   -4.7220    0.0094 H        1 ZINC000001616881    0.1300
28     H28    -4.6522   -4.1876    0.0314 H        1 ZINC000001616881    0.1300
29     H29    -1.6648   -6.4893    0.0181 H        1 ZINC000001616881    0.1300
30     H30    -1.7707   -8.9451    0.0167 H        1 ZINC000001616881    0.1400
31     H31    -2.9017  -12.1410    0.0177 H        1 ZINC000001616881    0.1000
32     H32    -2.1509  -10.7953   -0.8732 H        1 ZINC000001616881    0.0600
33     H33    -2.1467  -10.7965    0.9068 H        1 ZINC000001616881    0.0600
34     H34    -8.3502   -8.7131    0.0353 H        1 ZINC000001616881    0.1000
35     H35    -7.4603   -7.4529    0.9231 H        1 ZINC000001616881    0.0600
36     H36    -7.4655   -7.4523   -0.8569 H        1 ZINC000001616881    0.0600
37     H37    -5.9529   -6.3123    0.0352 H        1 ZINC000001616881    0.1400
38     H38    -4.6256   -2.4185    0.0328 H        1 ZINC000001616881    0.1400
39     H39    -4.0586    1.9270    0.9240 H        1 ZINC000001616881    0.0600
40     H40    -4.0717    1.9291   -0.8559 H        1 ZINC000001616881    0.0600
41     H41    -5.5994    2.0771    0.0455 H        1 ZINC000001616881    0.1000
42     H42    -2.3285    1.1826    0.0261 H        1 ZINC000001616881    0.1300
@<TRIPOS>BOND
1     1     2     1
2     1     23    1
3     1     24    1
4     1     25    1
5     2     3     1
6     3     22    ar
7     3     4     ar
8     4     5     ar
9     4     26    1
10    5     6     1
11    5     18    ar
12    6     7     2
13    6     27    1
14    7     8     1
15    7     28    1
16    8     17    ar
17    8     9     ar
18    9     10    ar
19    9     29    1
20    10    11    ar
21    10    30    1
22    11    12    1
23    11    14    ar
24    12    13    1
25    13    31    1
26    13    32    1
27    13    33    1
28    14    15    1
29    14    17    ar
30    15    16    1
31    16    34    1
32    16    35    1
33    16    36    1
34    17    37    1
35    18    19    ar
36    18    38    1
37    19    20    1
38    19    22    ar
39    20    21    1
40    21    39    1
41    21    40    1
42    21    41    1
43    22    42    1
@<TRIPOS>SUBSTRUCTURE
1   ZINC000001616881 1     RESIDUE    1   A     ZIN   1
