@<TRIPOS>MOLECULE
ZINC000072316390
71    76    1     0     0
SMALL
USER_CHARGES
@<TRIPOS>ATOM
1      C1     -0.0187    1.5258    0.0104 C.3      1 ZINC000072316390   -0.1500
2      C2      0.0021   -0.0041    0.0020 C.3      1 ZINC000072316390    0.1400
3      C3      0.7421   -0.5109    1.2415 C.3      1 ZINC000072316390   -0.1900
4      O4     -1.3386   -0.4987    0.0122 O.3      1 ZINC000072316390   -0.5500
5      C5      0.7182   -0.4975   -1.2568 C.3      1 ZINC000072316390   -0.1300
6      C6      2.1582    0.0236   -1.2642 C.3      1 ZINC000072316390   -0.1500
7      C7      2.8918   -0.5381   -2.4840 C.3      1 ZINC000072316390    0.0000
8      N8      2.9009   -2.0046   -2.4215 N.4      1 ZINC000072316390   -0.3800
9      H9      3.3279   -2.3007   -1.5566 H        1 ZINC000072316390    0.4300
10     C10     3.6712   -2.5367   -3.5536 C.3      1 ZINC000072316390    0.0600
11     C11     3.5793   -4.0408   -3.5610 C.ar     1 ZINC000072316390    0.0500
12     C12     2.6167   -4.6582   -4.3561 C.ar     1 ZINC000072316390   -0.1200
13     C13     2.5187   -6.0218   -4.3761 C.ar     1 ZINC000072316390   -0.0500
14     C14     3.4099   -6.7601   -3.5783 C.ar     1 ZINC000072316390    0.1600
15     N15     3.3877   -8.0968   -3.5353 N.ar     1 ZINC000072316390   -0.5200
16     C16     4.2365   -8.7659   -2.7776 C.ar     1 ZINC000072316390    0.4400
17     C17     4.1612  -10.2429   -2.7742 C.ar     1 ZINC000072316390   -0.0700
18     C18     3.2075  -10.9079   -3.5680 C.ar     1 ZINC000072316390   -0.0300
19     C19     2.1653  -10.4614   -4.4901 C.2      1 ZINC000072316390   -0.1900
20     C20     1.5597  -11.5644   -4.9633 C.2      1 ZINC000072316390    0.0700
21     N21     2.1315  -12.6792   -4.4173 N.pl3    1 ZINC000072316390   -0.5900
22     C22     3.1448  -12.3121   -3.5577 C.ar     1 ZINC000072316390    0.0700
23     C23     4.0285  -13.0325   -2.7611 C.ar     1 ZINC000072316390   -0.0500
24     C24     4.9602  -12.3743   -1.9863 C.ar     1 ZINC000072316390   -0.1500
25     C25     5.0367  -10.9897   -1.9902 C.ar     1 ZINC000072316390    0.1500
26     F26     5.9565  -10.3635   -1.2240 F        1 ZINC000072316390   -0.1100
27     N27     5.1581   -8.1776   -2.0161 N.ar     1 ZINC000072316390   -0.5400
28     C28     5.2785   -6.8594   -1.9742 C.ar     1 ZINC000072316390    0.4400
29     N29     6.2346   -6.2558   -1.1845 N.3      1 ZINC000072316390   -0.4500
30     C30     7.1047   -5.3824   -1.9854 C.3      1 ZINC000072316390    0.0200
31     C31     8.1103   -4.6884   -1.0629 C.3      1 ZINC000072316390    0.0700
32     O32     8.8510   -5.6777   -0.3432 O.3      1 ZINC000072316390   -0.3800
33     C33     8.0347   -6.5454    0.4481 C.3      1 ZINC000072316390    0.0600
34     C34     7.0283   -7.2583   -0.4591 C.3      1 ZINC000072316390    0.0200
35     C35     4.3627   -6.0643   -2.7951 C.ar     1 ZINC000072316390    0.0000
36     N36     4.4121   -4.7365   -2.8218 N.ar     1 ZINC000072316390   -0.4000
37     C37     1.5260   -2.5144   -2.4864 C.3      1 ZINC000072316390   -0.0100
38     C38     0.7398   -2.0287   -1.2667 C.3      1 ZINC000072316390   -0.1500
39     H39     1.0039    1.9031    0.0027 H        1 ZINC000072316390    0.0700
40     H40    -0.5459    1.8868   -0.8726 H        1 ZINC000072316390    0.0700
41     H41    -0.5289    1.8773    0.9072 H        1 ZINC000072316390    0.0700
42     H42     0.2319   -0.1594    2.1383 H        1 ZINC000072316390    0.0700
43     H43     0.7568   -1.6008    1.2356 H        1 ZINC000072316390    0.0600
44     H44     1.7647   -0.1336    1.2338 H        1 ZINC000072316390    0.0700
45     H45    -1.4018   -1.4636    0.0076 H        1 ZINC000072316390    0.3700
46     H46     0.1935   -0.1346   -2.1406 H        1 ZINC000072316390    0.1000
47     H47     2.1510    1.1125   -1.3134 H        1 ZINC000072316390    0.1200
48     H48     2.6660   -0.2969   -0.3546 H        1 ZINC000072316390    0.0900
49     H49     2.3834   -0.2167   -3.3930 H        1 ZINC000072316390    0.1300
50     H50     3.9173   -0.1689   -2.4925 H        1 ZINC000072316390    0.1300
51     H51     3.2658   -2.1433   -4.4858 H        1 ZINC000072316390    0.1500
52     H52     4.7146   -2.2369   -3.4559 H        1 ZINC000072316390    0.1500
53     H53     1.9476   -4.0598   -4.9566 H        1 ZINC000072316390    0.1500
54     H54     1.7780   -6.5170   -4.9865 H        1 ZINC000072316390    0.1600
55     H55     1.9267   -9.4389   -4.7432 H        1 ZINC000072316390    0.1600
56     H56     0.7426  -11.5689   -5.6695 H        1 ZINC000072316390    0.1800
57     H57     1.8640  -13.5923   -4.6060 H        1 ZINC000072316390    0.4200
58     H58     3.9845  -14.1115   -2.7490 H        1 ZINC000072316390    0.1400
59     H59     5.6411  -12.9444   -1.3718 H        1 ZINC000072316390    0.1500
60     H60     7.6399   -5.9798   -2.7235 H        1 ZINC000072316390    0.0600
61     H61     6.4989   -4.6321   -2.4935 H        1 ZINC000072316390    0.1100
62     H62     8.7941   -4.0840   -1.6590 H        1 ZINC000072316390    0.1100
63     H63     7.5775   -4.0491   -0.3591 H        1 ZINC000072316390    0.0600
64     H64     8.6637   -7.2841    0.9449 H        1 ZINC000072316390    0.1100
65     H65     7.4997   -5.9601    1.1959 H        1 ZINC000072316390    0.0600
66     H66     6.3667   -7.8772    0.1470 H        1 ZINC000072316390    0.1100
67     H67     7.5623   -7.8857   -1.1727 H        1 ZINC000072316390    0.0800
68     H68     1.0467   -2.1509   -3.3953 H        1 ZINC000072316390    0.1300
69     H69     1.5432   -3.6042   -2.4966 H        1 ZINC000072316390    0.1300
70     H70     1.2182   -2.3919   -0.3571 H        1 ZINC000072316390    0.0900
71     H71    -0.2812   -2.4068   -1.3176 H        1 ZINC000072316390    0.1100
@<TRIPOS>BOND
1     1     2     1
2     1     39    1
3     1     40    1
4     1     41    1
5     2     3     1
6     2     4     1
7     2     5     1
8     3     42    1
9     3     43    1
10    3     44    1
11    4     45    1
12    5     38    1
13    5     6     1
14    5     46    1
15    6     7     1
16    6     47    1
17    6     48    1
18    7     8     1
19    7     49    1
20    7     50    1
21    8     9     1
22    8     10    1
23    8     37    1
24    10    11    1
25    10    51    1
26    10    52    1
27    11    36    ar
28    11    12    ar
29    12    13    ar
30    12    53    1
31    13    14    ar
32    13    54    1
33    14    35    ar
34    14    15    ar
35    15    16    ar
36    16    17    1
37    16    27    ar
38    17    25    ar
39    17    18    ar
40    18    22    ar
41    18    19    1
42    19    20    2
43    19    55    1
44    20    21    1
45    20    56    1
46    21    22    1
47    21    57    1
48    22    23    ar
49    23    24    ar
50    23    58    1
51    24    25    ar
52    24    59    1
53    25    26    1
54    27    28    ar
55    28    29    1
56    28    35    ar
57    29    34    1
58    29    30    1
59    30    31    1
60    30    60    1
61    30    61    1
62    31    32    1
63    31    62    1
64    31    63    1
65    32    33    1
66    33    34    1
67    33    64    1
68    33    65    1
69    34    66    1
70    34    67    1
71    35    36    ar
72    37    38    1
73    37    68    1
74    37    69    1
75    38    70    1
76    38    71    1
@<TRIPOS>SUBSTRUCTURE
1   ZINC000072316390 1     RESIDUE    1   A     ZIN   1
