@<TRIPOS>MOLECULE
ZINC000040423177
44    48    1     0     0
SMALL
USER_CHARGES
@<TRIPOS>ATOM
1      C1     -0.0178    1.4608    0.0101 C.3      1 ZINC000040423177    0.0700
2      N2      0.0021   -0.0041    0.0020 N.pl3    1 ZINC000040423177   -0.4700
3      C3      0.0079   -0.7750   -1.1187 C.2      1 ZINC000040423177    0.1100
4      C4      0.0281   -2.0938   -0.7691 C.2      1 ZINC000040423177   -0.1400
5      C5      0.0406   -3.2470   -1.6837 C.2      1 ZINC000040423177   -0.0200
6      C6      1.1180   -3.7109   -2.4286 C.2      1 ZINC000040423177   -0.0400
7      C7      2.4792   -3.1471   -2.4632 C.2      1 ZINC000040423177   -0.1400
8      C8      3.4413   -3.2654   -1.5084 C.2      1 ZINC000040423177    0.0600
9      O9      4.5495   -2.6163   -1.8969 O.3      1 ZINC000040423177   -0.1800
10     C10     4.3828   -2.0444   -3.1073 C.ar     1 ZINC000040423177    0.0500
11     C11     5.2133   -1.2828   -3.9197 C.ar     1 ZINC000040423177   -0.0800
12     C12     4.7549   -0.8243   -5.1367 C.ar     1 ZINC000040423177   -0.0700
13     C13     5.6618    0.0013   -6.0126 C.3      1 ZINC000040423177    0.1200
14     O14     6.3985   -0.8608   -6.8821 O.3      1 ZINC000040423177   -0.5700
15     C15     3.4681   -1.1157   -5.5629 C.ar     1 ZINC000040423177   -0.1100
16     C16     2.6289   -1.8697   -4.7703 C.ar     1 ZINC000040423177   -0.0700
17     C17     3.0829   -2.3430   -3.5434 C.ar     1 ZINC000040423177   -0.1000
18     C18     0.6233   -4.8830   -3.1786 C.2      1 ZINC000040423177    0.5600
19     O19     1.2783   -5.5621   -3.9441 O.2      1 ZINC000040423177   -0.4400
20     N20    -0.6713   -5.0738   -2.8735 N.am     1 ZINC000040423177   -0.6900
21     C21    -1.0890   -4.1505   -1.9910 C.2      1 ZINC000040423177    0.5600
22     O22    -2.2093   -4.0673   -1.5289 O.2      1 ZINC000040423177   -0.4400
23     C23     0.0354   -2.1369    0.7039 C.ar     1 ZINC000040423177   -0.0700
24     C24     0.0538   -3.1678    1.6403 C.ar     1 ZINC000040423177   -0.0400
25     C25     0.0552   -2.8675    2.9860 C.ar     1 ZINC000040423177   -0.1100
26     Br26    0.0807   -4.2629    4.2620 Br       1 ZINC000040423177   -0.0500
27     C27     0.0384   -1.5455    3.4082 C.ar     1 ZINC000040423177   -0.0700
28     C28     0.0197   -0.5160    2.4920 C.ar     1 ZINC000040423177   -0.1100
29     C29     0.0236   -0.7984    1.1302 C.ar     1 ZINC000040423177    0.1100
30     H30     1.0048    1.8381    0.0023 H        1 ZINC000040423177    0.0800
31     H31    -0.5450    1.8219   -0.8730 H        1 ZINC000040423177    0.0900
32     H32    -0.5280    1.8123    0.9069 H        1 ZINC000040423177    0.0900
33     H33    -0.0024   -0.4001   -2.1315 H        1 ZINC000040423177    0.1800
34     H34     3.3298   -3.8013   -0.5774 H        1 ZINC000040423177    0.2200
35     H35     6.2176   -1.0496   -3.5981 H        1 ZINC000040423177    0.1400
36     H36     5.0631    0.6915   -6.6070 H        1 ZINC000040423177    0.0600
37     H37     6.3544    0.5659   -5.3884 H        1 ZINC000040423177    0.0600
38     H38     7.0041   -0.3964   -7.4759 H        1 ZINC000040423177    0.3800
39     H39     3.1219   -0.7505   -6.5185 H        1 ZINC000040423177    0.1300
40     H40     1.6264   -2.0958   -5.1023 H        1 ZINC000040423177    0.1300
41     H41    -1.2261   -5.7816   -3.2369 H        1 ZINC000040423177    0.4300
42     H42     0.0664   -4.1973    1.3140 H        1 ZINC000040423177    0.1300
43     H43     0.0397   -1.3213    4.4647 H        1 ZINC000040423177    0.1400
44     H44     0.0061    0.5092    2.8313 H        1 ZINC000040423177    0.1300
@<TRIPOS>BOND
1     1     2     1
2     1     30    1
3     1     31    1
4     1     32    1
5     2     29    1
6     2     3     1
7     3     4     2
8     3     33    1
9     4     5     1
10    4     23    1
11    5     21    1
12    5     6     2
13    6     7     1
14    6     18    1
15    7     17    1
16    7     8     2
17    8     9     1
18    8     34    1
19    9     10    1
20    10    17    ar
21    10    11    ar
22    11    12    ar
23    11    35    1
24    12    13    1
25    12    15    ar
26    13    14    1
27    13    36    1
28    13    37    1
29    14    38    1
30    15    16    ar
31    15    39    1
32    16    17    ar
33    16    40    1
34    18    19    2
35    18    20    am
36    20    21    am
37    20    41    1
38    21    22    2
39    23    29    ar
40    23    24    ar
41    24    25    ar
42    24    42    1
43    25    26    1
44    25    27    ar
45    27    28    ar
46    27    43    1
47    28    29    ar
48    28    44    1
@<TRIPOS>SUBSTRUCTURE
1   ZINC000040423177 1     RESIDUE    1   A     ZIN   1
