@<TRIPOS>MOLECULE
ZINC000003841590
49    53    1     0     0
SMALL
USER_CHARGES
@<TRIPOS>ATOM
1      C1      0.0105    1.3673    0.0224 C.3      1 ZINC000003841590   -0.1200
2      C2      0.0166   -0.1395    0.0489 C.ar     1 ZINC000003841590   -0.0600
3      C3      0.0205   -0.8515   -1.1342 C.ar     1 ZINC000003841590   -0.1100
4      C4      0.0255   -2.2344   -1.1108 C.ar     1 ZINC000003841590   -0.0900
5      C5      0.0272   -2.9082    0.0965 C.ar     1 ZINC000003841590   -0.1100
6      C6      0.0233   -2.2016    1.2835 C.ar     1 ZINC000003841590   -0.0900
7      C7      0.0240   -0.8134    1.2633 C.ar     1 ZINC000003841590    0.0900
8      N8      0.0201   -0.0940    2.4650 N.am     1 ZINC000003841590   -0.4900
9      C9     -1.1573    0.2461    3.0393 C.2      1 ZINC000003841590    0.5500
10     O10    -2.2203   -0.0609    2.5318 O.2      1 ZINC000003841590   -0.4900
11     C11    -1.1027    1.0004    4.3000 C.ar     1 ZINC000003841590   -0.2000
12     C12    -2.2569    1.3980    4.9711 C.ar     1 ZINC000003841590    0.0000
13     C13    -3.6148    1.0591    4.4121 C.3      1 ZINC000003841590   -0.1300
14     C14    -2.1480    2.1030    6.1501 C.ar     1 ZINC000003841590   -0.1400
15     C15    -0.9004    2.4185    6.6715 C.ar     1 ZINC000003841590   -0.0700
16     C16     0.2526    2.0352    6.0235 C.ar     1 ZINC000003841590   -0.1100
17     C17     0.1686    1.3197    4.8277 C.ar     1 ZINC000003841590    0.1600
18     N18     1.2785    0.9228    4.1565 N.2      1 ZINC000003841590   -0.4900
19     C19     1.2000    0.2518    3.0477 C.2      1 ZINC000003841590    0.3800
20     C20     2.4807   -0.1520    2.3638 C.3      1 ZINC000003841590    0.1700
21     N21     3.6236    0.3287    3.1443 N.pl3    1 ZINC000003841590   -0.4600
22     C22     4.3019    1.4946    2.9471 C.2      1 ZINC000003841590    0.2600
23     N23     5.2600    1.6049    3.8208 N.2      1 ZINC000003841590   -0.4600
24     C24     5.2576    0.5199    4.6320 C.ar     1 ZINC000003841590   -0.1100
25     C25     6.0366    0.1004    5.7236 C.ar     1 ZINC000003841590    0.5100
26     N26     7.0836    0.8779    6.1865 N.pl3    1 ZINC000003841590   -0.8200
27     N27     5.7442   -1.0602    6.3014 N.ar     1 ZINC000003841590   -0.5900
28     C28     4.7467   -1.8084    5.8667 C.ar     1 ZINC000003841590    0.3700
29     N29     3.9909   -1.4561    4.8480 N.ar     1 ZINC000003841590   -0.5600
30     C30     4.2038   -0.3092    4.2114 C.ar     1 ZINC000003841590    0.3200
31     H31     1.0366    1.7346    0.0120 H        1 ZINC000003841590    0.0800
32     H32    -0.5083    1.7129   -0.8718 H        1 ZINC000003841590    0.0800
33     H33    -0.5014    1.7442    0.9079 H        1 ZINC000003841590    0.0600
34     H34     0.0192   -0.3281   -2.0789 H        1 ZINC000003841590    0.1300
35     H35     0.0279   -2.7891   -2.0375 H        1 ZINC000003841590    0.1300
36     H36     0.0312   -3.9881    0.1116 H        1 ZINC000003841590    0.1300
37     H37     0.0243   -2.7285    2.2262 H        1 ZINC000003841590    0.1300
38     H38    -3.8890    0.0477    4.7120 H        1 ZINC000003841590    0.0800
39     H39    -4.3520    1.7643    4.7958 H        1 ZINC000003841590    0.0700
40     H40    -3.5854    1.1202    3.3242 H        1 ZINC000003841590    0.0900
41     H41    -3.0407    2.4132    6.6728 H        1 ZINC000003841590    0.1400
42     H42    -0.8335    2.9717    7.5966 H        1 ZINC000003841590    0.1400
43     H43     1.2174    2.2864    6.4388 H        1 ZINC000003841590    0.1400
44     H44     2.5246   -1.2383    2.2867 H        1 ZINC000003841590    0.1300
45     H45     2.5129    0.2848    1.3657 H        1 ZINC000003841590    0.1300
46     H46     4.0776    2.2196    2.1786 H        1 ZINC000003841590    0.2200
47     H47     7.2870    1.7233    5.7566 H        1 ZINC000003841590    0.4200
48     H48     7.6142    0.5775    6.9409 H        1 ZINC000003841590    0.4100
49     H49     4.5436   -2.7446    6.3654 H        1 ZINC000003841590    0.2000
@<TRIPOS>BOND
1     1     2     1
2     1     31    1
3     1     32    1
4     1     33    1
5     2     7     ar
6     2     3     ar
7     3     4     ar
8     3     34    1
9     4     5     ar
10    4     35    1
11    5     6     ar
12    5     36    1
13    6     7     ar
14    6     37    1
15    7     8     1
16    8     19    1
17    8     9     am
18    9     10    2
19    9     11    1
20    11    17    ar
21    11    12    ar
22    12    13    1
23    12    14    ar
24    13    38    1
25    13    39    1
26    13    40    1
27    14    15    ar
28    14    41    1
29    15    16    ar
30    15    42    1
31    16    17    ar
32    16    43    1
33    17    18    1
34    18    19    2
35    19    20    1
36    20    21    1
37    20    44    1
38    20    45    1
39    21    30    1
40    21    22    1
41    22    23    2
42    22    46    1
43    23    24    1
44    24    30    ar
45    24    25    ar
46    25    26    1
47    25    27    ar
48    26    47    1
49    26    48    1
50    27    28    ar
51    28    29    ar
52    28    49    1
53    29    30    ar
@<TRIPOS>SUBSTRUCTURE
1   ZINC000003841590 1     RESIDUE    1   A     ZIN   1
