@<TRIPOS>MOLECULE
ZINC000013812765
54    58    1     0     0
SMALL
USER_CHARGES
@<TRIPOS>ATOM
1      C1      0.6799    1.4230    0.0442 C.3      1 ZINC000013812765    0.0700
2      N2      0.5014   -0.0309    0.0263 N.am     1 ZINC000013812765   -0.5100
3      C3      0.5402   -0.6930   -1.1460 C.2      1 ZINC000013812765    0.5600
4      O4      0.7237   -0.0798   -2.1825 O.2      1 ZINC000013812765   -0.5000
5      C5      0.3635   -2.1463   -1.1810 C.2      1 ZINC000013812765   -0.1600
6      C6      0.4068   -2.8737   -2.4710 C.ar     1 ZINC000013812765   -0.0100
7      C7      1.6177   -3.3706   -2.9549 C.ar     1 ZINC000013812765   -0.0100
8      Cl8     3.0787   -3.1381   -2.0465 Cl       1 ZINC000013812765   -0.0500
9      C9      1.6511   -4.0482   -4.1579 C.ar     1 ZINC000013812765   -0.1100
10     C10     0.4878   -4.2343   -4.8829 C.ar     1 ZINC000013812765   -0.0900
11     C11    -0.7157   -3.7443   -4.4089 C.ar     1 ZINC000013812765   -0.1100
12     C12    -0.7639   -3.0699   -3.2045 C.ar     1 ZINC000013812765   -0.0100
13     Cl13   -2.2754   -2.4557   -2.6113 Cl       1 ZINC000013812765   -0.0500
14     C14     0.1583   -2.8269   -0.0108 C.2      1 ZINC000013812765    0.0300
15     C15     0.1224   -2.1055    1.2042 C.ar     1 ZINC000013812765   -0.2800
16     C16    -0.0843   -2.7559    2.4300 C.ar     1 ZINC000013812765    0.2600
17     N17    -0.1079   -2.0319    3.5333 N.ar     1 ZINC000013812765   -0.5700
18     C18     0.0594   -0.7145    3.4950 C.ar     1 ZINC000013812765    0.6100
19     N19     0.0256   -0.0049    4.6796 N.pl3    1 ZINC000013812765   -0.6200
20     C20    -0.0646   -0.6847    5.9009 C.ar     1 ZINC000013812765    0.1300
21     C21     0.5499   -1.9206    6.0546 C.ar     1 ZINC000013812765   -0.0800
22     C22     0.4610   -2.5908    7.2585 C.ar     1 ZINC000013812765   -0.1200
23     C23    -0.2425   -2.0288    8.3158 C.ar     1 ZINC000013812765    0.1000
24     N24    -0.3322   -2.7078    9.5361 N.3      1 ZINC000013812765   -0.4900
25     C25    -0.9025   -4.0501    9.3514 C.3      1 ZINC000013812765    0.0200
26     C26    -0.9272   -4.7780   10.6981 C.3      1 ZINC000013812765    0.0600
27     O27    -1.6687   -3.9998   11.6414 O.3      1 ZINC000013812765   -0.3800
28     C28    -1.1405   -2.6866   11.8461 C.3      1 ZINC000013812765    0.0600
29     C29    -1.1180   -1.9375   10.5111 C.3      1 ZINC000013812765    0.0100
30     C30    -0.8566   -0.7926    8.1622 C.ar     1 ZINC000013812765   -0.1500
31     C31    -0.7636   -0.1203    6.9598 C.ar     1 ZINC000013812765   -0.1100
32     N32     0.2578   -0.0567    2.3629 N.ar     1 ZINC000013812765   -0.6000
33     C33     0.3018   -0.7051    1.2045 C.ar     1 ZINC000013812765    0.4700
34     H34     1.7393    1.6577    0.1485 H        1 ZINC000013812765    0.0700
35     H35     0.3039    1.8467   -0.8871 H        1 ZINC000013812765    0.0900
36     H36     0.1295    1.8464    0.8843 H        1 ZINC000013812765    0.1000
37     H37     2.5876   -4.4333   -4.5336 H        1 ZINC000013812765    0.1400
38     H38     0.5195   -4.7643   -5.8234 H        1 ZINC000013812765    0.1500
39     H39    -1.6204   -3.8929   -4.9798 H        1 ZINC000013812765    0.1400
40     H40     0.0255   -3.8987   -0.0161 H        1 ZINC000013812765    0.1500
41     H41    -0.2215   -3.8264    2.4699 H        1 ZINC000013812765    0.1900
42     H42     0.0643    0.9643    4.6657 H        1 ZINC000013812765    0.4300
43     H43     1.0970   -2.3576    5.2324 H        1 ZINC000013812765    0.1400
44     H44     0.9383   -3.5522    7.3778 H        1 ZINC000013812765    0.1300
45     H45    -1.9183   -3.9641    8.9656 H        1 ZINC000013812765    0.0500
46     H46    -0.2907   -4.6116    8.6454 H        1 ZINC000013812765    0.0900
47     H47    -1.4015   -5.7518   10.5769 H        1 ZINC000013812765    0.1000
48     H48     0.0929   -4.9115   11.0583 H        1 ZINC000013812765    0.0600
49     H49    -1.7691   -2.1479   12.5552 H        1 ZINC000013812765    0.1000
50     H50    -0.1266   -2.7593   12.2398 H        1 ZINC000013812765    0.0600
51     H51    -0.6634   -0.9569   10.6516 H        1 ZINC000013812765    0.0900
52     H52    -2.1373   -1.8177   10.1438 H        1 ZINC000013812765    0.0600
53     H53    -1.4038   -0.3555    8.9844 H        1 ZINC000013812765    0.1300
54     H54    -1.2412    0.8410    6.8403 H        1 ZINC000013812765    0.1300
@<TRIPOS>BOND
1     1     2     1
2     1     34    1
3     1     35    1
4     1     36    1
5     2     33    1
6     2     3     am
7     3     4     2
8     3     5     1
9     5     6     1
10    5     14    2
11    6     12    ar
12    6     7     ar
13    7     8     1
14    7     9     ar
15    9     10    ar
16    9     37    1
17    10    11    ar
18    10    38    1
19    11    12    ar
20    11    39    1
21    12    13    1
22    14    15    1
23    14    40    1
24    15    33    ar
25    15    16    ar
26    16    17    ar
27    16    41    1
28    17    18    ar
29    18    19    1
30    18    32    ar
31    19    20    1
32    19    42    1
33    20    31    ar
34    20    21    ar
35    21    22    ar
36    21    43    1
37    22    23    ar
38    22    44    1
39    23    24    1
40    23    30    ar
41    24    29    1
42    24    25    1
43    25    26    1
44    25    45    1
45    25    46    1
46    26    27    1
47    26    47    1
48    26    48    1
49    27    28    1
50    28    29    1
51    28    49    1
52    28    50    1
53    29    51    1
54    29    52    1
55    30    31    ar
56    30    53    1
57    31    54    1
58    32    33    ar
@<TRIPOS>SUBSTRUCTURE
1   ZINC000013812765 1     RESIDUE    1   A     ZIN   1
