@<TRIPOS>MOLECULE
ZINC000001543408
  26   25    0    0    0
SMALL
USER_CHARGES
NO_NAME
@<TRIPOS>ATOM
    1 N1       -0.0116     1.0048     0.0076 N.4    1 <0>      -0.6400
    2 H2        0.0021    -0.0041     0.0020 H      1 <0>       0.4400
    3 H3        0.9350     1.3541     0.0004 H      1 <0>       0.4400
    4 H4       -0.4996     1.3391    -0.8099 H      1 <0>       0.4400
    5 C5       -0.6992     1.4786     1.2162 C.3    1 <0>      -0.0100
    6 C6       -2.1346     0.9490     1.2270 C.3    1 <0>      -0.1500
    7 C7       -2.8507     1.4424     2.4858 C.3    1 <0>      -0.1200
    8 C8       -4.2861     0.9128     2.4967 C.3    1 <0>      -0.1200
    9 C9       -5.0022     1.4063     3.7555 C.3    1 <0>      -0.1500
   10 C10      -6.4376     0.8767     3.7664 C.3    1 <0>      -0.0100
   11 N11      -7.1252     1.3504     4.9750 N.4    1 <0>      -0.6400
   12 H12      -8.0718     1.0012     4.9821 H      1 <0>       0.4400
   13 H13      -6.6372     1.0162     5.7924 H      1 <0>       0.4400
   14 H14      -7.1389     2.3593     4.9805 H      1 <0>       0.4400
   15 H15      -0.1720     1.1175     2.0992 H      1 <0>       0.1300
   16 H16      -0.7140     2.5685     1.2222 H      1 <0>       0.1300
   17 H17      -2.6618     1.3101     0.3440 H      1 <0>       0.0900
   18 H18      -2.1198    -0.1409     1.2210 H      1 <0>       0.0900
   19 H19      -2.3235     1.0813     3.3689 H      1 <0>       0.0800
   20 H20      -2.8655     2.5323     2.4918 H      1 <0>       0.0800
   21 H21      -4.8133     1.2739     1.6136 H      1 <0>       0.0800
   22 H22      -4.2713    -0.1771     2.4907 H      1 <0>       0.0800
   23 H23      -4.4751     1.0452     4.6386 H      1 <0>       0.0900
   24 H24      -5.0170     2.4961     3.7615 H      1 <0>       0.0900
   25 H25      -6.9648     1.2378     2.8833 H      1 <0>       0.1300
   26 H26      -6.4228    -0.2132     3.7604 H      1 <0>       0.1300
@<TRIPOS>BOND
   1    1    2 1
   2    1    3 1
   3    1    4 1
   4    1    5 1
   5    5    6 1
   6    5   15 1
   7    5   16 1
   8    6    7 1
   9    6   17 1
  10    6   18 1
  11    7    8 1
  12    7   19 1
  13    7   20 1
  14    8    9 1
  15    8   21 1
  16    8   22 1
  17    9   10 1
  18    9   23 1
  19    9   24 1
  20   10   11 1
  21   10   25 1
  22   10   26 1
  23   11   12 1
  24   11   13 1
  25   11   14 1
