@<TRIPOS>MOLECULE
ZINC000006483517
  32   34    0    0    0
SMALL
USER_CHARGES
NO_NAME
@<TRIPOS>ATOM
    1 C1       -0.0173     1.4248     0.0099 C.3    1 <0>       0.0300
    2 O2        0.0021    -0.0041     0.0020 O.3    1 <0>      -0.3000
    3 C3        0.6249    -0.6175     1.0400 C.ar   1 <0>       0.2400
    4 C4        1.2008     0.1327     2.0484 C.ar   1 <0>      -0.3600
    5 C5        1.8386    -0.4979     3.1113 C.ar   1 <0>       0.3400
    6 O6        2.4004     0.2482     4.0965 O.3    1 <0>      -0.7000
    7 C7        1.9059    -1.8810     3.1747 C.ar   1 <0>      -0.3000
    8 C8        1.3348    -2.6502     2.1727 C.ar   1 <0>       0.2100
    9 C9        0.6843    -2.0155     1.1007 C.ar   1 <0>      -0.3700
   10 C10       0.0849    -2.8526     0.0476 C.2    1 <0>       0.4300
   11 O11      -0.4917    -2.3554    -0.9062 O.2    1 <0>      -0.5000
   12 C12       0.2041    -4.2560     0.1846 C.2    1 <0>      -0.3100
   13 C13       0.8546    -4.7717     1.2621 C.2    1 <0>       0.1800
   14 C14       0.9687    -6.2370     1.3875 C.ar   1 <0>      -0.0600
   15 C15       0.4195    -7.0690     0.4078 C.ar   1 <0>      -0.0700
   16 C16       0.5287    -8.4366     0.5285 C.ar   1 <0>      -0.1500
   17 C17       1.1833    -8.9896     1.6227 C.ar   1 <0>       0.1200
   18 O18       1.2882   -10.3382     1.7380 O.3    1 <0>      -0.5000
   19 C19       1.7311    -8.1660     2.5988 C.ar   1 <0>      -0.1500
   20 C20       1.6312    -6.7972     2.4833 C.ar   1 <0>      -0.0700
   21 O21       1.3918    -3.9981     2.2190 O.3    1 <0>      -0.2300
   22 H22       1.0053     1.8021     0.0021 H      1 <0>       0.0500
   23 H23      -0.5445     1.7859    -0.8732 H      1 <0>       0.0900
   24 H24      -0.5275     1.7763     0.9067 H      1 <0>       0.0500
   25 H25       1.1555     1.2111     2.0106 H      1 <0>       0.1200
   26 H26       2.4039    -2.3596     4.0050 H      1 <0>       0.1200
   27 H27      -0.2188    -4.9130    -0.5610 H      1 <0>       0.1500
   28 H28      -0.0900    -6.6402    -0.4424 H      1 <0>       0.1400
   29 H29       0.1046    -9.0803    -0.2280 H      1 <0>       0.1400
   30 H30       2.0812   -10.7077     1.3259 H      1 <0>       0.3900
   31 H31       2.2393    -8.5999     3.4473 H      1 <0>       0.1300
   32 H32       2.0576    -6.1579     3.2421 H      1 <0>       0.1400
@<TRIPOS>BOND
   1    1    2 1
   2    1   22 1
   3    1   23 1
   4    1   24 1
   5    2    3 1
   6    3    9 ar
   7    3    4 ar
   8    4    5 ar
   9    4   25 1
  10    5    6 1
  11    5    7 ar
  12    7    8 ar
  13    7   26 1
  14    8   21 1
  15    8    9 ar
  16    9   10 1
  17   10   11 2
  18   10   12 1
  19   12   13 2
  20   12   27 1
  21   13   14 1
  22   13   21 1
  23   14   20 ar
  24   14   15 ar
  25   15   16 ar
  26   15   28 1
  27   16   17 ar
  28   16   29 1
  29   17   18 1
  30   17   19 ar
  31   18   30 1
  32   19   20 ar
  33   19   31 1
  34   20   32 1
