@<TRIPOS>MOLECULE
ZINC000095550928
54    57    1     0     0
SMALL
USER_CHARGES
@<TRIPOS>ATOM
1      C1     -1.8321    0.7560   -0.4127 C.3      1 ZINC000095550928   -0.1200
2      C2     -0.8458   -0.3640   -0.2032 C.ar     1 ZINC000095550928   -0.0900
3      C3     -0.0256   -0.7792   -1.2527 C.ar     1 ZINC000095550928   -0.0500
4      C4     -0.1206   -0.1219   -2.5737 C.2      1 ZINC000095550928    0.5600
5      O5     -0.0434    1.0883   -2.6573 O.2      1 ZINC000095550928   -0.5100
6      N6     -0.2926   -0.8645   -3.6852 N.am     1 ZINC000095550928   -0.6000
7      C7     -0.5227   -2.3054   -3.5686 C.3      1 ZINC000095550928    0.0600
8      C8     -1.8986   -2.6875   -4.0945 C.3      1 ZINC000095550928    0.0500
9      O9     -2.0074   -2.3524   -5.4826 O.3      1 ZINC000095550928   -0.3200
10     C10    -2.4607   -1.1036   -5.7559 C.ar     1 ZINC000095550928    0.1000
11     C11    -3.7260   -0.9240   -6.3008 C.ar     1 ZINC000095550928   -0.1200
12     C12    -4.2018    0.3490   -6.5360 C.ar     1 ZINC000095550928   -0.1000
13     C13    -3.4179    1.4589   -6.2263 C.ar     1 ZINC000095550928   -0.0300
14     C14    -3.9394    2.8279   -6.4604 C.ar     1 ZINC000095550928   -0.1600
15     C15    -5.2217    3.0180   -6.9873 C.ar     1 ZINC000095550928   -0.0200
16     C16    -5.6644    4.3108   -7.1881 C.ar     1 ZINC000095550928   -0.2400
17     C17    -4.8273    5.3740   -6.8623 C.ar     1 ZINC000095550928    0.4100
18     N18    -5.2656    6.6777   -7.0608 N.pl3    1 ZINC000095550928   -0.8500
19     N19    -3.6186    5.1593   -6.3650 N.ar     1 ZINC000095550928   -0.5400
20     C20    -3.1620    3.9412   -6.1534 C.ar     1 ZINC000095550928    0.1700
21     C21    -2.1402    1.2769   -5.6946 C.ar     1 ZINC000095550928   -0.0800
22     C22    -1.6682    0.0036   -5.4834 C.ar     1 ZINC000095550928   -0.1300
23     C23    -0.2541   -0.2228   -5.0032 C.3      1 ZINC000095550928    0.1600
24     C24     0.8853   -1.8175   -1.0506 C.ar     1 ZINC000095550928   -0.1200
25     C25     0.9703   -2.4272    0.1839 C.ar     1 ZINC000095550928    0.0000
26     C26     0.1549   -2.0127    1.2218 C.ar     1 ZINC000095550928   -0.6800
27     S27     0.2702   -2.7973    2.7953 S.o2     1 ZINC000095550928    2.5000
28     C28     0.8717   -1.4960    3.9068 C.3      1 ZINC000095550928   -0.6500
29     O29    -1.0707   -3.1440    3.1131 O.2      1 ZINC000095550928   -0.9200
30     O30     1.2629   -3.7981    2.6159 O.2      1 ZINC000095550928   -0.9300
31     C31    -0.7475   -0.9788    1.0308 C.ar     1 ZINC000095550928    0.1900
32     F32    -1.5408   -0.5792    2.0487 F        1 ZINC000095550928   -0.1100
33     H33    -1.3298    1.7133   -0.2732 H        1 ZINC000095550928    0.0900
34     H34    -2.2349    0.7010   -1.4240 H        1 ZINC000095550928    0.0800
35     H35    -2.6449    0.6639    0.3077 H        1 ZINC000095550928    0.0800
36     H36     0.2384   -2.8361   -4.1405 H        1 ZINC000095550928    0.0900
37     H37    -0.4477   -2.5955   -2.5206 H        1 ZINC000095550928    0.1000
38     H38    -2.0483   -3.7599   -3.9690 H        1 ZINC000095550928    0.1100
39     H39    -2.6623   -2.1501   -3.5323 H        1 ZINC000095550928    0.0600
40     H40    -4.3371   -1.7816   -6.5407 H        1 ZINC000095550928    0.1300
41     H41    -5.1848    0.4861   -6.9618 H        1 ZINC000095550928    0.1300
42     H42    -5.8499    2.1742   -7.2315 H        1 ZINC000095550928    0.1400
43     H43    -6.6484    4.4946   -7.5934 H        1 ZINC000095550928    0.1300
44     H44    -6.1497    6.8421   -7.4244 H        1 ZINC000095550928    0.4100
45     H45    -4.6873    7.4234   -6.8359 H        1 ZINC000095550928    0.4100
46     H46    -2.1709    3.8051   -5.7465 H        1 ZINC000095550928    0.1600
47     H47    -1.5263    2.1314   -5.4510 H        1 ZINC000095550928    0.1300
48     H48     0.2632    0.7335   -4.9261 H        1 ZINC000095550928    0.1000
49     H49     0.2714   -0.8693   -5.7060 H        1 ZINC000095550928    0.1000
50     H50     1.5224   -2.1432   -1.8596 H        1 ZINC000095550928    0.1500
51     H51     1.6750   -3.2305    0.3405 H        1 ZINC000095550928    0.1700
52     H52     0.1619   -0.6689    3.9156 H        1 ZINC000095550928    0.1300
53     H53     0.9739   -1.8978    4.9149 H        1 ZINC000095550928    0.1400
54     H54     1.8409   -1.1394    3.5579 H        1 ZINC000095550928    0.1400
@<TRIPOS>BOND
1     1     2     1
2     1     33    1
3     1     34    1
4     1     35    1
5     2     31    ar
6     2     3     ar
7     3     4     1
8     3     24    ar
9     4     5     2
10    4     6     am
11    6     23    1
12    6     7     1
13    7     8     1
14    7     36    1
15    7     37    1
16    8     9     1
17    8     38    1
18    8     39    1
19    9     10    1
20    10    22    ar
21    10    11    ar
22    11    12    ar
23    11    40    1
24    12    13    ar
25    12    41    1
26    13    14    1
27    13    21    ar
28    14    20    ar
29    14    15    ar
30    15    16    ar
31    15    42    1
32    16    17    ar
33    16    43    1
34    17    18    1
35    17    19    ar
36    18    44    1
37    18    45    1
38    19    20    ar
39    20    46    1
40    21    22    ar
41    21    47    1
42    22    23    1
43    23    48    1
44    23    49    1
45    24    25    ar
46    24    50    1
47    25    26    ar
48    25    51    1
49    26    27    1
50    26    31    ar
51    27    28    1
52    27    29    2
53    27    30    2
54    28    52    1
55    28    53    1
56    28    54    1
57    31    32    1
@<TRIPOS>SUBSTRUCTURE
1   ZINC000095550928 1     RESIDUE    1   A     ZIN   1
