@<TRIPOS>MOLECULE
ZINC000098210305
60    63    1     0     0
SMALL
USER_CHARGES
@<TRIPOS>ATOM
1      C1      0.5195    0.4111    0.0926 C.3      1 ZINC000098210305   -0.1000
2      C2      0.9401   -1.0356    0.1279 C.ar     1 ZINC000098210305    0.0700
3      N3      1.1065   -1.6941   -1.0014 N.ar     1 ZINC000098210305   -0.4300
4      C4      1.4736   -2.9606   -1.0201 C.ar     1 ZINC000098210305    0.0600
5      C5      1.6996   -3.6525    0.1565 C.ar     1 ZINC000098210305   -0.0400
6      Cl6     2.1825   -5.3195    0.1163 Cl       1 ZINC000098210305   -0.0500
7      C7      1.5363   -2.9986    1.3682 C.ar     1 ZINC000098210305   -0.1500
8      C8      1.1538   -1.6598    1.3507 C.ar     1 ZINC000098210305    0.1800
9      N9      0.9764   -0.9577    2.5454 N.pl3    1 ZINC000098210305   -0.7300
10     C10     1.1930   -1.6297    3.8291 C.3      1 ZINC000098210305    0.1900
11     C11     0.9377   -0.6594    4.9535 C.2      1 ZINC000098210305   -0.2200
12     C12    -0.2496   -0.4774    5.5432 C.2      1 ZINC000098210305   -0.1200
13     C13    -0.2633    0.4584    6.5502 C.2      1 ZINC000098210305   -0.0500
14     C14     0.9552    1.0380    6.7659 C.2      1 ZINC000098210305   -0.2600
15     C15     1.2422    2.0651    7.7715 C.2      1 ZINC000098210305    0.6000
16     O16     0.3545    2.4687    8.4997 O.2      1 ZINC000098210305   -0.5200
17     N17     2.4892    2.5627    7.8897 N.am     1 ZINC000098210305   -0.7100
18     C18     2.7526    3.6668    8.8158 C.3      1 ZINC000098210305    0.1300
19     H19     1.8791    4.3171    8.8636 H        1 ZINC000098210305    0.1200
20     C20     3.0472    3.1053   10.2083 C.3      1 ZINC000098210305   -0.1200
21     C21     4.2028    2.1064   10.1213 C.3      1 ZINC000098210305   -0.0900
22     C22     5.5402    2.8454    9.8679 C.3      1 ZINC000098210305   -0.1300
23     C23     6.5918    1.8425   10.4041 C.3      1 ZINC000098210305   -0.1200
24     C24     5.9298    1.2344   11.6577 C.3      1 ZINC000098210305   -0.1300
25     C25     4.4109    1.4021   11.4780 C.3      1 ZINC000098210305   -0.1200
26     C26     3.9409    4.4566    8.3309 C.2      1 ZINC000098210305    0.5300
27     O27     4.5116    4.1294    7.3121 O.2      1 ZINC000098210305   -0.5300
28     N28     4.3694    5.5266    9.0295 N.am     1 ZINC000098210305   -0.7000
29     C29     5.5247    6.2943    8.5581 C.3      1 ZINC000098210305    0.0800
30     C30     5.4253    7.8204    8.6046 C.3      1 ZINC000098210305   -0.1900
31     C31     6.3224    7.0815    9.5997 C.3      1 ZINC000098210305   -0.1900
32     S32     2.1255    0.3486    5.6493 S.3      1 ZINC000098210305    0.2300
33     H33     1.4047    1.0461    0.0577 H        1 ZINC000098210305    0.0800
34     H34    -0.0914    0.5903   -0.7922 H        1 ZINC000098210305    0.0800
35     H35    -0.0591    0.6432    0.9867 H        1 ZINC000098210305    0.0700
36     H36     1.5993   -3.4647   -1.9669 H        1 ZINC000098210305    0.1600
37     H37     1.7054   -3.5137    2.3022 H        1 ZINC000098210305    0.1400
38     H38     0.7099   -0.0253    2.5250 H        1 ZINC000098210305    0.4100
39     H39     0.5102   -2.4749    3.9164 H        1 ZINC000098210305    0.0900
40     H40     2.2215   -1.9864    3.8835 H        1 ZINC000098210305    0.0800
41     H41    -1.1327   -1.0254    5.2494 H        1 ZINC000098210305    0.1500
42     H42    -1.1490    0.7107    7.1143 H        1 ZINC000098210305    0.1600
43     H43     3.2123    2.1897    7.3616 H        1 ZINC000098210305    0.4100
44     H44     3.3210    3.9204   10.8782 H        1 ZINC000098210305    0.0800
45     H45     2.1599    2.6019   10.5922 H        1 ZINC000098210305    0.0900
46     H46     4.0146    1.3741    9.3362 H        1 ZINC000098210305    0.0800
47     H47     5.6862    3.0257    8.8029 H        1 ZINC000098210305    0.0800
48     H48     5.5772    3.7800   10.4276 H        1 ZINC000098210305    0.0700
49     H49     6.7917    1.0675    9.6642 H        1 ZINC000098210305    0.0600
50     H50     7.5120    2.3616   10.6723 H        1 ZINC000098210305    0.0600
51     H51     6.1819    0.1769   11.7373 H        1 ZINC000098210305    0.0600
52     H52     6.2612    1.7657   12.5499 H        1 ZINC000098210305    0.0600
53     H53     4.0051    2.0149   12.2829 H        1 ZINC000098210305    0.0700
54     H54     3.9257    0.4261   11.4703 H        1 ZINC000098210305    0.0600
55     H55     3.9130    5.7883    9.8444 H        1 ZINC000098210305    0.4000
56     H56     6.0779    5.8507    7.7303 H        1 ZINC000098210305    0.1400
57     H57     5.9132    8.3811    7.8073 H        1 ZINC000098210305    0.1000
58     H58     4.5004    8.2531    8.9860 H        1 ZINC000098210305    0.1000
59     H59     5.9877    7.0281   10.6356 H        1 ZINC000098210305    0.1000
60     H60     7.4005    7.1560    9.4569 H        1 ZINC000098210305    0.1100
@<TRIPOS>BOND
1     1     2     1
2     1     33    1
3     1     34    1
4     1     35    1
5     2     8     ar
6     2     3     ar
7     3     4     ar
8     4     5     ar
9     4     36    1
10    5     6     1
11    5     7     ar
12    7     8     ar
13    7     37    1
14    8     9     1
15    9     10    1
16    9     38    1
17    10    11    1
18    10    39    1
19    10    40    1
20    11    32    1
21    11    12    2
22    12    13    1
23    12    41    1
24    13    14    2
25    13    42    1
26    14    15    1
27    14    32    1
28    15    16    2
29    15    17    am
30    17    18    1
31    17    43    1
32    18    19    1
33    18    20    1
34    18    26    1
35    20    21    1
36    20    44    1
37    20    45    1
38    21    25    1
39    21    22    1
40    21    46    1
41    22    23    1
42    22    47    1
43    22    48    1
44    23    24    1
45    23    49    1
46    23    50    1
47    24    25    1
48    24    51    1
49    24    52    1
50    25    53    1
51    25    54    1
52    26    27    2
53    26    28    am
54    28    29    1
55    28    55    1
56    29    31    1
57    29    30    1
58    29    56    1
59    30    31    1
60    30    57    1
61    30    58    1
62    31    59    1
63    31    60    1
@<TRIPOS>SUBSTRUCTURE
1   ZINC000098210305 1     RESIDUE    1   A     ZIN   1
