@<TRIPOS>MOLECULE
ZINC000013489154
  40   42    0    0    0
SMALL
USER_CHARGES
NO_NAME
@<TRIPOS>ATOM
    1 N1       -0.0116     1.0048     0.0076 N.4    1 <0>      -0.6400
    2 H2        0.0021    -0.0041     0.0020 H      1 <0>       0.4400
    3 H3        0.9350     1.3541     0.0004 H      1 <0>       0.4400
    4 H4       -0.4996     1.3391    -0.8099 H      1 <0>       0.4400
    5 C5       -0.6992     1.4786     1.2162 C.3    1 <0>       0.0000
    6 C6       -2.1346     0.9490     1.2270 C.3    1 <0>      -0.1700
    7 C7       -2.8507     1.4424     2.4858 C.3    1 <0>       0.1400
    8 N8       -4.2251     0.9353     2.4962 N.pl3  1 <0>      -0.7200
    9 C9       -5.0713     1.2523     3.5435 C.ar   1 <0>       0.4500
   10 C10      -6.3949     0.7586     3.5565 C.ar   1 <0>      -0.2000
   11 C11      -6.8934    -0.0562     2.5298 C.ar   1 <0>      -0.0300
   12 C12      -8.1879    -0.4905     2.6228 C.ar   1 <0>      -0.1900
   13 C13      -8.9691    -0.1219     3.7139 C.ar   1 <0>       0.1600
   14 N14      -8.4989     0.6415     4.6731 N.ar   1 <0>      -0.4800
   15 C15      -7.2451     1.0966     4.6404 C.ar   1 <0>       0.2000
   16 C16      -6.7255     1.9146     5.6597 C.ar   1 <0>      -0.1900
   17 C17      -5.4178     2.3504     5.5625 C.ar   1 <0>       0.2200
   18 C18      -4.8619     3.2130     6.6333 C.ar   1 <0>      -0.0600
   19 C19      -5.6523     3.5711     7.7240 C.ar   1 <0>      -0.0900
   20 C20      -5.1297     4.3740     8.7174 C.ar   1 <0>      -0.1200
   21 C21      -3.8242     4.8233     8.6321 C.ar   1 <0>      -0.1000
   22 C22      -3.0353     4.4714     7.5516 C.ar   1 <0>      -0.1300
   23 C23      -3.5453     3.6638     6.5554 C.ar   1 <0>      -0.0800
   24 N24      -4.6411     2.0107     4.5323 N.ar   1 <0>      -0.5500
   25 H25      -0.1720     1.1175     2.0992 H      1 <0>       0.1400
   26 H26      -0.7140     2.5685     1.2222 H      1 <0>       0.1400
   27 H27      -2.6618     1.3101     0.3440 H      1 <0>       0.0900
   28 H28      -2.1198    -0.1409     1.2210 H      1 <0>       0.0900
   29 H29      -2.3235     1.0813     3.3689 H      1 <0>       0.0800
   30 H30      -2.8655     2.5323     2.4918 H      1 <0>       0.0800
   31 H31      -4.5417     0.3773     1.7687 H      1 <0>       0.4100
   32 H32      -6.2737    -0.3327     1.6896 H      1 <0>       0.1300
   33 H33      -8.6033    -1.1192     1.8491 H      1 <0>       0.1400
   34 H34      -9.9889    -0.4726     3.7730 H      1 <0>       0.1700
   35 H35      -7.3379     2.1975     6.5031 H      1 <0>       0.1500
   36 H36      -6.6718     3.2212     7.7915 H      1 <0>       0.1300
   37 H37      -5.7413     4.6525     9.5629 H      1 <0>       0.1300
   38 H38      -3.4193     5.4514     9.4118 H      1 <0>       0.1300
   39 H39      -2.0168     4.8253     7.4900 H      1 <0>       0.1300
   40 H40      -2.9284     3.3894     5.7125 H      1 <0>       0.1300
@<TRIPOS>BOND
   1    1    2 1
   2    1    3 1
   3    1    4 1
   4    1    5 1
   5    5    6 1
   6    5   25 1
   7    5   26 1
   8    6    7 1
   9    6   27 1
  10    6   28 1
  11    7    8 1
  12    7   29 1
  13    7   30 1
  14    8    9 1
  15    8   31 1
  16    9   24 ar
  17    9   10 ar
  18   10   15 ar
  19   10   11 ar
  20   11   12 ar
  21   11   32 1
  22   12   13 ar
  23   12   33 1
  24   13   14 ar
  25   13   34 1
  26   14   15 ar
  27   15   16 ar
  28   16   17 ar
  29   16   35 1
  30   17   18 1
  31   17   24 ar
  32   18   23 ar
  33   18   19 ar
  34   19   20 ar
  35   19   36 1
  36   20   21 ar
  37   20   37 1
  38   21   22 ar
  39   21   38 1
  40   22   23 ar
  41   22   39 1
  42   23   40 1
