@<TRIPOS>MOLECULE
ZINC000066079739
  53   54    0    0    0
SMALL
USER_CHARGES
NO_NAME
@<TRIPOS>ATOM
    1 C1        0.4939     0.2224     6.5391 C.3    1 <0>      -0.1300
    2 C2        1.0045    -0.9035     5.6774 C.ar   1 <0>      -0.0200
    3 C3        2.2018    -1.5367     5.9732 C.ar   1 <0>      -0.1500
    4 C4        2.6385    -2.5656     5.1600 C.ar   1 <0>       0.1200
    5 N5        1.9307    -2.9456     4.1144 N.ar   1 <0>      -0.5000
    6 C6        0.7876    -2.3662     3.8030 C.ar   1 <0>       0.0800
    7 C7        0.0174    -2.8388     2.5970 C.3    1 <0>       0.0900
    8 H8       -1.0514    -2.7390     2.7864 H      1 <0>       0.1500
    9 C9        0.4014    -1.9914     1.3824 C.3    1 <0>      -0.1900
   10 N10       0.3382    -4.2477     2.3323 N.4    1 <0>      -0.3700
   11 H11      -0.2613    -4.5973     1.5998 H      1 <0>       0.4200
   12 C12       0.1288    -5.0355     3.5543 C.3    1 <0>      -0.0100
   13 C13      -1.3581    -5.0324     3.9146 C.3    1 <0>      -0.1500
   14 C14      -1.5639    -5.7731     5.2374 C.3    1 <0>      -0.1500
   15 C15      -3.0509    -5.7700     5.5977 C.3    1 <0>      -0.0100
   16 N16      -3.2485    -6.4812     6.8678 N.4    1 <0>      -0.6400
   17 H17      -4.2291    -6.4791     7.1054 H      1 <0>       0.4500
   18 H18      -2.9272    -7.4331     6.7738 H      1 <0>       0.4400
   19 H19      -2.7248    -6.0200     7.5966 H      1 <0>       0.4400
   20 C20       1.7413    -4.3597     1.9118 C.3    1 <0>       0.0200
   21 C21       2.0296    -5.7795     1.4971 C.ar   1 <0>       0.0600
   22 N22       2.3890    -6.6639     2.4066 N.ar   1 <0>      -0.4600
   23 C23       2.6507    -7.9172     2.0900 C.ar   1 <0>       0.1000
   24 C24       2.5565    -8.3500     0.7812 C.ar   1 <0>      -0.1300
   25 C25       2.1812    -7.4485    -0.2034 C.ar   1 <0>      -0.0700
   26 C26       1.9087    -6.1411     0.1684 C.ar   1 <0>      -0.1100
   27 C27       1.4966    -5.1241    -0.8646 C.3    1 <0>      -0.1300
   28 C28       0.2852    -1.3347     4.5730 C.ar   1 <0>      -0.1500
   29 H29      -0.1284    -0.1838     7.3366 H      1 <0>       0.0900
   30 H30       1.3374     0.7586     6.9739 H      1 <0>       0.0900
   31 H31      -0.0968     0.9068     5.9302 H      1 <0>       0.0800
   32 H32       2.7861    -1.2297     6.8280 H      1 <0>       0.1500
   33 H33       3.5703    -3.0637     5.3834 H      1 <0>       0.1700
   34 H34       1.4671    -2.1040     1.1830 H      1 <0>       0.0900
   35 H35      -0.1677    -2.3225     0.5137 H      1 <0>       0.0900
   36 H36       0.1784    -0.9438     1.5851 H      1 <0>       0.1100
   37 H37       0.4600    -6.0605     3.3870 H      1 <0>       0.1400
   38 H38       0.7017    -4.5975     4.3716 H      1 <0>       0.1400
   39 H39      -1.7052    -4.0041     4.0162 H      1 <0>       0.0900
   40 H40      -1.9238    -5.5307     3.1273 H      1 <0>       0.1000
   41 H41      -1.2169    -6.8014     5.1358 H      1 <0>       0.1000
   42 H42      -0.9982    -5.2749     6.0247 H      1 <0>       0.1000
   43 H43      -3.3979    -4.7417     5.6993 H      1 <0>       0.1400
   44 H44      -3.6166    -6.2683     4.8104 H      1 <0>       0.1400
   45 H45       1.9229    -3.6913     1.0702 H      1 <0>       0.1400
   46 H46       2.3923    -4.0843     2.7415 H      1 <0>       0.1900
   47 H47       2.9423    -8.6131     2.8627 H      1 <0>       0.1700
   48 H48       2.7727    -9.3775     0.5281 H      1 <0>       0.1500
   49 H49       2.0992    -7.7585    -1.2347 H      1 <0>       0.1500
   50 H50       0.4092    -5.0530    -0.8908 H      1 <0>       0.0800
   51 H51       1.9181    -4.1526    -0.6064 H      1 <0>       0.0800
   52 H52       1.8643    -5.4312    -1.8436 H      1 <0>       0.0900
   53 H53      -0.6515    -0.8642     4.3129 H      1 <0>       0.1400
@<TRIPOS>BOND
   1    1    2 1
   2    1   29 1
   3    1   30 1
   4    1   31 1
   5    2   28 ar
   6    2    3 ar
   7    3    4 ar
   8    3   32 1
   9    4    5 ar
  10    4   33 1
  11    5    6 ar
  12    6    7 1
  13    6   28 ar
  14    7    8 1
  15    7    9 1
  16    7   10 1
  17    9   34 1
  18    9   35 1
  19    9   36 1
  20   10   11 1
  21   10   12 1
  22   10   20 1
  23   12   13 1
  24   12   37 1
  25   12   38 1
  26   13   14 1
  27   13   39 1
  28   13   40 1
  29   14   15 1
  30   14   41 1
  31   14   42 1
  32   15   16 1
  33   15   43 1
  34   15   44 1
  35   16   17 1
  36   16   18 1
  37   16   19 1
  38   20   21 1
  39   20   45 1
  40   20   46 1
  41   21   26 ar
  42   21   22 ar
  43   22   23 ar
  44   23   24 ar
  45   23   47 1
  46   24   25 ar
  47   24   48 1
  48   25   26 ar
  49   25   49 1
  50   26   27 1
  51   27   50 1
  52   27   51 1
  53   27   52 1
  54   28   53 1
