@<TRIPOS>MOLECULE
ZINC000095938263
64    68    1     0     0
SMALL
USER_CHARGES
@<TRIPOS>ATOM
1      C1     -0.4444    1.3868   -0.1382 C.3      1 ZINC000095938263    0.0400
2      O2     -0.2768   -0.0317   -0.0974 O.3      1 ZINC000095938263   -0.3000
3      C3      0.2991   -0.5525    1.0162 C.ar     1 ZINC000095938263    0.3100
4      N4      0.6680    0.2522    1.9972 N.ar     1 ZINC000095938263   -0.5100
5      C5      1.2308   -0.2056    3.0986 C.ar     1 ZINC000095938263    0.1400
6      C6      1.4590   -1.5678    3.2692 C.ar     1 ZINC000095938263   -0.1000
7      C7      2.0922   -2.0741    4.5116 C.ar     1 ZINC000095938263   -0.0100
8      C8      2.3082   -3.4281    4.6446 C.ar     1 ZINC000095938263   -0.0600
9      C9      2.9073   -3.9428    5.8112 C.ar     1 ZINC000095938263    0.1100
10     N10     3.2370   -5.1535    6.2274 N.2      1 ZINC000095938263   -0.2900
11     N11     3.8142   -5.0536    7.4987 N.pl3    1 ZINC000095938263   -0.4200
12     C12     3.8477   -3.7690    7.8852 C.2      1 ZINC000095938263    0.1100
13     C13     3.2960   -3.0087    6.8792 C.ar     1 ZINC000095938263   -0.1800
14     C14     3.0436   -1.5774    6.6857 C.ar     1 ZINC000095938263    0.0600
15     C15     3.4154   -0.6027    7.7273 C.2      1 ZINC000095938263    0.2400
16     N16     3.9864   -0.8873    8.8760 N.2      1 ZINC000095938263   -0.4700
17     C17     4.1709    0.2530    9.5570 C.2      1 ZINC000095938263   -0.0100
18     C18     3.6996    1.2645    8.8042 C.2      1 ZINC000095938263   -0.0400
19     C19     3.7000    2.7262    9.1707 C.3      1 ZINC000095938263    0.1400
20     N20     4.9473    3.3474    8.7055 N.3      1 ZINC000095938263   -0.5400
21     C21     5.0129    3.3619    7.2369 C.3      1 ZINC000095938263    0.0200
22     C22     6.3511    3.9615    6.7971 C.3      1 ZINC000095938263    0.0900
23     H23     7.1663    3.3279    7.1466 H        1 ZINC000095938263    0.0700
24     C24     6.3931    4.0524    5.2704 C.3      1 ZINC000095938263   -0.1500
25     O25     6.4889    5.2698    7.3582 O.3      1 ZINC000095938263   -0.3800
26     C26     6.4303    5.2926    8.7869 C.3      1 ZINC000095938263    0.0900
27     H27     7.2478    4.6977    9.1943 H        1 ZINC000095938263    0.0700
28     C28     6.5534    6.7357    9.2803 C.3      1 ZINC000095938263   -0.1500
29     C29     5.0929    4.7065    9.2469 C.3      1 ZINC000095938263    0.0200
30     O30     3.2326    0.7280    7.6592 O.3      1 ZINC000095938263   -0.1900
31     C31     2.4559   -1.1580    5.5086 C.ar     1 ZINC000095938263   -0.1000
32     C32     1.0827   -2.4534    2.2534 C.ar     1 ZINC000095938263   -0.0900
33     C33     0.4890   -1.9326    1.1133 C.ar     1 ZINC000095938263    0.0900
34     N34     0.0946   -2.7780    0.0697 N.am     1 ZINC000095938263   -1.0400
35     S35    -0.5018   -4.2858    0.4060 S.o2     1 ZINC000095938263    2.6100
36     C36    -1.9746   -3.9746    1.4182 C.3      1 ZINC000095938263   -0.6700
37     O37    -0.8703   -4.8080   -0.8632 O.2      1 ZINC000095938263   -0.9400
38     O38     0.5167   -4.9003    1.1833 O.2      1 ZINC000095938263   -0.9500
39     H39     0.5293    1.8702   -0.0587 H        1 ZINC000095938263    0.0600
40     H40    -0.9148    1.6701   -1.0798 H        1 ZINC000095938263    0.1000
41     H41    -1.0755    1.7022    0.6927 H        1 ZINC000095938263    0.0600
42     H42     1.5185    0.4851    3.8774 H        1 ZINC000095938263    0.1700
43     H43     2.0163   -4.0989    3.8501 H        1 ZINC000095938263    0.1400
44     H44     4.1408   -5.8017    8.0226 H        1 ZINC000095938263    0.4500
45     H45     4.2382   -3.3972    8.8209 H        1 ZINC000095938263    0.2000
46     H46     4.6182    0.3438   10.5358 H        1 ZINC000095938263    0.1900
47     H47     2.8504    3.2195    8.6985 H        1 ZINC000095938263    0.0600
48     H48     3.6244    2.8294   10.2532 H        1 ZINC000095938263    0.1100
49     H49     4.9287    2.3430    6.8588 H        1 ZINC000095938263    0.0800
50     H50     4.1960    3.9660    6.8421 H        1 ZINC000095938263    0.0500
51     H51     5.5787    4.6873    4.9216 H        1 ZINC000095938263    0.0600
52     H52     7.3461    4.4794    4.9579 H        1 ZINC000095938263    0.0700
53     H53     6.2845    3.0552    4.8440 H        1 ZINC000095938263    0.0700
54     H54     5.7348    7.3297    8.8739 H        1 ZINC000095938263    0.0600
55     H55     6.5087    6.7524   10.3693 H        1 ZINC000095938263    0.0700
56     H56     7.5044    7.1530    8.9493 H        1 ZINC000095938263    0.0700
57     H57     4.2773    5.3320    8.8842 H        1 ZINC000095938263    0.0500
58     H58     5.0672    4.6691   10.3360 H        1 ZINC000095938263    0.0900
59     H59     2.2659   -0.1058    5.3566 H        1 ZINC000095938263    0.1400
60     H60     1.2469   -3.5159    2.3562 H        1 ZINC000095938263    0.1800
61     H61     0.1707   -2.4807   -0.8505 H        1 ZINC000095938263    0.4300
62     H62    -2.6850   -3.3733    0.8508 H        1 ZINC000095938263    0.1300
63     H63    -2.4369   -4.9240    1.6887 H        1 ZINC000095938263    0.1400
64     H64    -1.6871   -3.4396    2.3233 H        1 ZINC000095938263    0.1300
@<TRIPOS>BOND
1     1     2     1
2     1     39    1
3     1     40    1
4     1     41    1
5     2     3     1
6     3     33    ar
7     3     4     ar
8     4     5     ar
9     5     6     ar
10    5     42    1
11    6     7     1
12    6     32    ar
13    7     31    ar
14    7     8     ar
15    8     9     ar
16    8     43    1
17    9     13    ar
18    9     10    2
19    10    11    1
20    11    12    1
21    11    44    1
22    12    13    2
23    12    45    1
24    13    14    ar
25    14    15    1
26    14    31    ar
27    15    30    1
28    15    16    2
29    16    17    1
30    17    18    2
31    17    46    1
32    18    19    1
33    18    30    1
34    19    20    1
35    19    47    1
36    19    48    1
37    20    29    1
38    20    21    1
39    21    22    1
40    21    49    1
41    21    50    1
42    22    23    1
43    22    24    1
44    22    25    1
45    24    51    1
46    24    52    1
47    24    53    1
48    25    26    1
49    26    27    1
50    26    28    1
51    26    29    1
52    28    54    1
53    28    55    1
54    28    56    1
55    29    57    1
56    29    58    1
57    31    59    1
58    32    33    ar
59    32    60    1
60    33    34    1
61    34    35    am
62    34    61    1
63    35    36    1
64    35    37    2
65    35    38    2
66    36    62    1
67    36    63    1
68    36    64    1
@<TRIPOS>SUBSTRUCTURE
1   ZINC000095938263 1     RESIDUE    1   A     ZIN   1
