@<TRIPOS>MOLECULE
ZINC000037116434
26    27    1     0     0
SMALL
USER_CHARGES
@<TRIPOS>ATOM
1      N1      0.1458    1.1012    1.2038 N.pl3    1 ZINC000037116434   -0.8800
2      C2      0.0844   -0.1524    0.5861 C.ar     1 ZINC000037116434    0.2000
3      C3     -1.1058   -0.8640    0.5735 C.ar     1 ZINC000037116434   -0.1800
4      C4     -1.1640   -2.1029   -0.0376 C.ar     1 ZINC000037116434   -0.0800
5      C5     -0.0383   -2.6361   -0.6373 C.ar     1 ZINC000037116434   -0.1600
6      C6      1.1528   -1.9339   -0.6292 C.ar     1 ZINC000037116434   -0.0700
7      C7      1.2190   -0.6881   -0.0242 C.ar     1 ZINC000037116434    0.0600
8      N8      2.4243    0.0252   -0.0152 N.am     1 ZINC000037116434   -0.6500
9      C9      3.5962   -0.6332    0.0835 C.2      1 ZINC000037116434    0.5800
10     O10     3.6124   -1.8485    0.0825 O.2      1 ZINC000037116434   -0.5100
11     C11     4.8641    0.1243    0.1931 C.ar     1 ZINC000037116434    0.0200
12     C12     6.0781   -0.5546    0.2895 C.ar     1 ZINC000037116434    0.1200
13     N13     7.2064    0.1254    0.3871 N.ar     1 ZINC000037116434   -0.4400
14     C14     7.1848    1.4464    0.3934 C.ar     1 ZINC000037116434    0.0800
15     C15     5.9783    2.1252    0.2976 C.ar     1 ZINC000037116434    0.0500
16     N16     4.8486    1.4547    0.1943 N.ar     1 ZINC000037116434   -0.4200
17     H17     0.9780    1.5994    1.2083 H        1 ZINC000037116434    0.3900
18     H18    -0.6450    1.4740    1.6242 H        1 ZINC000037116434    0.4000
19     H19    -1.9871   -0.4506    1.0413 H        1 ZINC000037116434    0.1300
20     H20    -2.0917   -2.6559   -0.0462 H        1 ZINC000037116434    0.1200
21     H21    -0.0893   -3.6042   -1.1133 H        1 ZINC000037116434    0.1200
22     H22     2.0303   -2.3537   -1.0984 H        1 ZINC000037116434    0.1400
23     H23     2.4156    0.9929   -0.0799 H        1 ZINC000037116434    0.4100
24     H24     6.0959   -1.6345    0.2848 H        1 ZINC000037116434    0.1900
25     H25     8.1089    1.9995    0.4736 H        1 ZINC000037116434    0.1800
26     H26     5.9655    3.2051    0.3031 H        1 ZINC000037116434    0.1800
@<TRIPOS>BOND
1     1     2     1
2     1     17    1
3     1     18    1
4     2     7     ar
5     2     3     ar
6     3     4     ar
7     3     19    1
8     4     5     ar
9     4     20    1
10    5     6     ar
11    5     21    1
12    6     7     ar
13    6     22    1
14    7     8     1
15    8     9     am
16    8     23    1
17    9     10    2
18    9     11    1
19    11    16    ar
20    11    12    ar
21    12    13    ar
22    12    24    1
23    13    14    ar
24    14    15    ar
25    14    25    1
26    15    16    ar
27    15    26    1
@<TRIPOS>SUBSTRUCTURE
1   ZINC000037116434 1     RESIDUE    1   A     ZIN   1
