@<TRIPOS>MOLECULE
ZINC000095616286
  40   41    0    0    0
SMALL
USER_CHARGES
NO_NAME
@<TRIPOS>ATOM
    1 C1       -0.2538     1.5449    -1.5351 C.3    1 <0>       0.0300
    2 O2       -0.2708     0.1244    -1.6895 O.3    1 <0>      -0.3500
    3 C3        0.6427    -0.5792    -0.9878 C.2    1 <0>       0.5300
    4 O4        1.4321    -0.0004    -0.2645 O.2    1 <0>      -0.4800
    5 C5        0.6825    -1.9868    -1.0929 C.2    1 <0>      -0.2200
    6 C6        1.2047    -2.5516    -2.1986 C.2    1 <0>       0.1900
    7 C7        1.7288    -1.6779    -3.3090 C.3    1 <0>      -0.1300
    8 N8        1.2629    -3.9106    -2.3200 N.pl3  1 <0>      -0.6200
    9 C9        1.1325    -4.7155    -1.1965 C.2    1 <0>       0.2500
   10 C10       1.5885    -6.1507    -1.2543 C.3    1 <0>      -0.1300
   11 C11       0.6175    -4.2440    -0.0827 C.2    1 <0>      -0.1500
   12 N12       0.5039    -5.1371     1.0924 N.pl3  1 <0>       0.0500
   13 O13       0.8850    -6.2916     1.0190 O.2    1 <0>      -0.1900
   14 O14       0.0292    -4.7175     2.1326 O.2    1 <0>      -0.1500
   15 C15       0.1472    -2.8246     0.0333 C.3    1 <0>       0.0700
   16 H16       0.4824    -2.4127     0.9852 H      1 <0>       0.1100
   17 C17      -1.3587    -2.7960    -0.0161 C.ar   1 <0>      -0.0400
   18 C18      -2.0274    -3.4010    -1.0635 C.ar   1 <0>      -0.1100
   19 C19      -3.4090    -3.3747    -1.1088 C.ar   1 <0>      -0.0900
   20 C20      -4.1214    -2.7438    -0.1064 C.ar   1 <0>      -0.1100
   21 C21      -3.4525    -2.1394     0.9418 C.ar   1 <0>      -0.0700
   22 C22      -2.0715    -2.1694     0.9893 C.ar   1 <0>      -0.1600
   23 C23      -1.3424    -1.5105     2.1318 C.3    1 <0>       0.5000
   24 F24      -2.2619    -0.8459     2.9504 F      1 <0>      -0.1800
   25 F25      -0.6707    -2.4837     2.8794 F      1 <0>      -0.1500
   26 F26      -0.4178    -0.5904     1.6263 F      1 <0>      -0.1800
   27 H27      -0.4285     1.7989    -0.4896 H      1 <0>       0.0600
   28 H28       0.7163     1.9326    -1.8460 H      1 <0>       0.0600
   29 H29      -1.0363     1.9868    -2.1520 H      1 <0>       0.1000
   30 H30       2.8027    -1.5380    -3.1851 H      1 <0>       0.1000
   31 H31       1.5328    -2.1544    -4.2695 H      1 <0>       0.0900
   32 H32       1.2300    -0.7093    -3.2754 H      1 <0>       0.1000
   33 H33       1.3951    -4.3139    -3.1923 H      1 <0>       0.4300
   34 H34       1.9855    -6.3661    -2.2463 H      1 <0>       0.0800
   35 H35       2.3660    -6.3152    -0.5083 H      1 <0>       0.1100
   36 H36       0.7440    -6.8088    -1.0501 H      1 <0>       0.1100
   37 H37      -1.4707    -3.8940    -1.8467 H      1 <0>       0.1200
   38 H38      -3.9315    -3.8469    -1.9276 H      1 <0>       0.1300
   39 H39      -5.2006    -2.7227    -0.1422 H      1 <0>       0.1400
   40 H40      -4.0092    -1.6461     1.7248 H      1 <0>       0.1400
@<TRIPOS>BOND
   1    1    2 1
   2    1   27 1
   3    1   28 1
   4    1   29 1
   5    2    3 1
   6    3    4 2
   7    3    5 1
   8    5   15 1
   9    5    6 2
  10    6    7 1
  11    6    8 1
  12    7   30 1
  13    7   31 1
  14    7   32 1
  15    8    9 1
  16    8   33 1
  17    9   10 1
  18    9   11 2
  19   10   34 1
  20   10   35 1
  21   10   36 1
  22   11   12 1
  23   11   15 1
  24   12   13 2
  25   12   14 2
  26   15   16 1
  27   15   17 1
  28   17   22 ar
  29   17   18 ar
  30   18   19 ar
  31   18   37 1
  32   19   20 ar
  33   19   38 1
  34   20   21 ar
  35   20   39 1
  36   21   22 ar
  37   21   40 1
  38   22   23 1
  39   23   24 1
  40   23   25 1
  41   23   26 1
