@<TRIPOS>MOLECULE
ZINC000145556851
67    71    1     0     0
SMALL
USER_CHARGES
@<TRIPOS>ATOM
1      C1      1.3836    1.4920   -0.9823 C.3      1 ZINC000145556851    0.0200
2      O2      0.8793    0.2026   -0.6284 O.3      1 ZINC000145556851   -0.3100
3      C3      1.4965   -0.4414    0.3993 C.ar     1 ZINC000145556851    0.1000
4      C4      2.5593    0.1588    1.0541 C.ar     1 ZINC000145556851   -0.1500
5      C5      3.1873   -0.4940    2.0982 C.ar     1 ZINC000145556851   -0.1100
6      C6      2.7545   -1.7529    2.4925 C.ar     1 ZINC000145556851    0.1500
7      N7      3.3914   -2.4126    3.5498 N.pl3    1 ZINC000145556851   -0.6200
8      C8      3.9119   -1.6842    4.6080 C.2      1 ZINC000145556851    0.4900
9      N9      3.7151   -0.3842    4.6763 N.2      1 ZINC000145556851   -0.5200
10     C10     4.2102    0.3420    5.6938 C.2      1 ZINC000145556851    0.1800
11     C11     3.9655    1.8048    5.7329 C.ar     1 ZINC000145556851   -0.0500
12     C12     4.4780    2.5709    6.7794 C.ar     1 ZINC000145556851   -0.0800
13     C13     4.2516    3.9332    6.8183 C.ar     1 ZINC000145556851   -0.1200
14     C14     3.5168    4.5452    5.8231 C.ar     1 ZINC000145556851   -0.0700
15     C15     2.9976    3.7889    4.7697 C.ar     1 ZINC000145556851   -0.1300
16     C16     2.2102    4.4447    3.7043 C.2      1 ZINC000145556851    0.5500
17     O17     1.7591    3.7850    2.7884 O.2      1 ZINC000145556851   -0.5100
18     N18     1.9926    5.7740    3.7483 N.am     1 ZINC000145556851   -0.6600
19     C19     1.1659    6.3765    2.8020 C.ar     1 ZINC000145556851    0.1400
20     C20     0.0648    5.6874    2.3029 C.ar     1 ZINC000145556851   -0.1300
21     C21    -0.7535    6.2795    1.3676 C.ar     1 ZINC000145556851   -0.0600
22     C22    -0.4777    7.5743    0.9198 C.ar     1 ZINC000145556851   -0.0900
23     C23    -1.3533    8.2124   -0.0825 C.2      1 ZINC000145556851    0.5600
24     O24    -2.3157    7.6115   -0.5195 O.2      1 ZINC000145556851   -0.6200
25     N25    -1.0860    9.4611   -0.5133 N.pl3    1 ZINC000145556851   -1.1200
26     S26    -2.0684   10.1770   -1.6379 S.o2     1 ZINC000145556851    2.5600
27     C27    -1.3330   11.8136   -1.9050 C.3      1 ZINC000145556851   -0.6400
28     O28    -1.9208    9.3688   -2.7973 O.2      1 ZINC000145556851   -1.0200
29     O29    -3.3235   10.2953   -0.9822 O.2      1 ZINC000145556851   -1.0200
30     C30     0.6286    8.2638    1.4235 C.ar     1 ZINC000145556851   -0.0500
31     C31     1.4400    7.6680    2.3624 C.ar     1 ZINC000145556851   -0.1600
32     C32     3.2290    2.4153    4.7226 C.ar     1 ZINC000145556851   -0.0200
33     C33     4.9308   -0.2417    6.6872 C.2      1 ZINC000145556851   -0.0600
34     N34     5.1613   -1.5907    6.6588 N.pl3    1 ZINC000145556851   -0.3200
35     C35     5.8269   -2.4461    7.4822 C.2      1 ZINC000145556851   -0.0700
36     C36     5.7207   -3.6833    6.9418 C.2      1 ZINC000145556851    0.0200
37     N37     5.0100   -3.5954    5.8167 N.2      1 ZINC000145556851   -0.4600
38     C38     4.6542   -2.3370    5.6255 C.2      1 ZINC000145556851    0.1400
39     C39     1.6891   -2.3574    1.8379 C.ar     1 ZINC000145556851   -0.2000
40     C40     1.0561   -1.7008    0.7960 C.ar     1 ZINC000145556851    0.1200
41     O41     0.0127   -2.2906    0.1536 O.3      1 ZINC000145556851   -0.3000
42     C42    -0.3775   -3.5888    0.6059 C.3      1 ZINC000145556851    0.0300
43     H43     2.4293    1.4047   -1.2772 H        1 ZINC000145556851    0.0500
44     H44     0.8039    1.8932   -1.8136 H        1 ZINC000145556851    0.1000
45     H45     1.3022    2.1615   -0.1260 H        1 ZINC000145556851    0.0700
46     H46     2.8978    1.1377    0.7483 H        1 ZINC000145556851    0.1400
47     H47     4.0158   -0.0244    2.6076 H        1 ZINC000145556851    0.1400
48     H48     3.4686   -3.3795    3.5420 H        1 ZINC000145556851    0.4300
49     H49     5.0532    2.0979    7.5616 H        1 ZINC000145556851    0.1300
50     H50     4.6509    4.5216    7.6311 H        1 ZINC000145556851    0.1400
51     H51     3.3427    5.6105    5.8590 H        1 ZINC000145556851    0.1300
52     H52     2.4114    6.3114    4.4388 H        1 ZINC000145556851    0.4100
53     H53    -0.1478    4.6868    2.6493 H        1 ZINC000145556851    0.1300
54     H54    -1.6075    5.7439    0.9801 H        1 ZINC000145556851    0.1300
55     H55    -0.3126   11.6982   -2.2706 H        1 ZINC000145556851    0.1200
56     H56    -1.9226   12.3613   -2.6402 H        1 ZINC000145556851    0.1000
57     H57    -1.3218   12.3648   -0.9647 H        1 ZINC000145556851    0.1200
58     H58     0.8445    9.2646    1.0794 H        1 ZINC000145556851    0.1400
59     H59     2.2950    8.2004    2.7523 H        1 ZINC000145556851    0.1200
60     H60     2.8299    1.8257    3.9105 H        1 ZINC000145556851    0.1500
61     H61     5.3209    0.3572    7.4968 H        1 ZINC000145556851    0.1700
62     H62     6.3432   -2.1868    8.3947 H        1 ZINC000145556851    0.1900
63     H63     6.1414   -4.5891    7.3527 H        1 ZINC000145556851    0.1900
64     H64     1.3520   -3.3368    2.1438 H        1 ZINC000145556851    0.1400
65     H65    -0.6716   -3.5351    1.6541 H        1 ZINC000145556851    0.0500
66     H66    -1.2187   -3.9434    0.0103 H        1 ZINC000145556851    0.1000
67     H67     0.4600   -4.2780    0.4984 H        1 ZINC000145556851    0.0500
@<TRIPOS>BOND
1     1     2     1
2     1     43    1
3     1     44    1
4     1     45    1
5     2     3     1
6     3     40    ar
7     3     4     ar
8     4     5     ar
9     4     46    1
10    5     6     ar
11    5     47    1
12    6     7     1
13    6     39    ar
14    7     8     1
15    7     48    1
16    8     38    1
17    8     9     2
18    9     10    1
19    10    11    1
20    10    33    2
21    11    32    ar
22    11    12    ar
23    12    13    ar
24    12    49    1
25    13    14    ar
26    13    50    1
27    14    15    ar
28    14    51    1
29    15    16    1
30    15    32    ar
31    16    17    2
32    16    18    am
33    18    19    1
34    18    52    1
35    19    31    ar
36    19    20    ar
37    20    21    ar
38    20    53    1
39    21    22    ar
40    21    54    1
41    22    23    1
42    22    30    ar
43    23    24    2
44    23    25    1
45    25    26    1
46    26    27    1
47    26    28    2
48    26    29    2
49    27    55    1
50    27    56    1
51    27    57    1
52    30    31    ar
53    30    58    1
54    31    59    1
55    32    60    1
56    33    34    1
57    33    61    1
58    34    38    1
59    34    35    1
60    35    36    2
61    35    62    1
62    36    37    1
63    36    63    1
64    37    38    2
65    39    40    ar
66    39    64    1
67    40    41    1
68    41    42    1
69    42    65    1
70    42    66    1
71    42    67    1
@<TRIPOS>SUBSTRUCTURE
1   ZINC000145556851 1     RESIDUE    1   A     ZIN   1
