@<TRIPOS>MOLECULE
ZINC000040412069
79    83    1     0     0
SMALL
USER_CHARGES
@<TRIPOS>ATOM
1      C1      1.2235   -0.6635    1.8539 C.3      1 ZINC000040412069   -0.1500
2      C2      0.5451   -0.3869    0.5107 C.3      1 ZINC000040412069   -0.0900
3      C3      1.4020   -0.9585   -0.6207 C.3      1 ZINC000040412069   -0.1500
4      C4     -0.8363   -1.0499    0.4900 C.3      1 ZINC000040412069   -0.0700
5      H5     -1.4319   -0.7130    1.3324 H        1 ZINC000040412069    0.0600
6      C6     -0.6653   -2.5931    0.5192 C.3      1 ZINC000040412069   -0.1100
7      C7     -1.2259   -3.0973   -0.8410 C.3      1 ZINC000040412069   -0.1000
8      C8     -2.3274   -2.0554   -1.1120 C.3      1 ZINC000040412069   -0.1300
9      C9     -3.4468   -2.2695   -0.1244 C.2      1 ZINC000040412069    0.5100
10     O10    -3.3788   -3.1771    0.6868 O.co2    1 ZINC000040412069   -0.7000
11     O11    -4.4199   -1.5350   -0.1373 O.co2    1 ZINC000040412069   -0.6800
12     C12    -2.8622   -2.0099   -2.5242 C.3      1 ZINC000040412069   -0.0800
13     C13    -3.8105   -0.8075   -2.6571 C.3      1 ZINC000040412069   -0.1000
14     C14    -3.1437    0.5032   -2.2514 C.3      1 ZINC000040412069   -0.0100
15     C15    -2.0542    0.7931   -3.2915 C.3      1 ZINC000040412069   -0.1500
16     C16    -2.5103    0.4140   -0.8565 C.3      1 ZINC000040412069   -0.0700
17     H17    -3.2831    0.2460   -0.0970 H        1 ZINC000040412069    0.1100
18     C18    -1.8148    1.7283   -0.5019 C.3      1 ZINC000040412069   -0.1100
19     C19    -2.8315    2.8771   -0.5310 C.3      1 ZINC000040412069   -0.1200
20     C20    -3.4592    2.9537   -1.9197 C.3      1 ZINC000040412069   -0.0600
21     H21    -2.6093    3.0850   -2.6307 H        1 ZINC000040412069    0.0700
22     C22    -4.2944    4.2129   -2.1021 C.3      1 ZINC000040412069   -0.0200
23     C23    -5.3072    4.3827   -0.9766 C.3      1 ZINC000040412069   -0.1500
24     C24    -3.3719    5.4143   -2.0257 C.2      1 ZINC000040412069    0.0300
25     C25    -3.7830    6.5906   -2.5286 C.2      1 ZINC000040412069   -0.1500
26     C26    -2.9387    7.7433   -2.4270 C.1      1 ZINC000040412069    0.2600
27     N27    -2.2692    8.6574   -2.3463 N.1      1 ZINC000040412069   -0.4200
28     C28    -5.0877    6.6953   -3.1979 C.2      1 ZINC000040412069    0.4200
29     O29    -5.6421    7.7771   -3.2923 O.2      1 ZINC000040412069   -0.4500
30     C30    -5.7295    5.4708   -3.8128 C.3      1 ZINC000040412069   -0.0800
31     C31    -7.1985    5.3864   -3.3841 C.3      1 ZINC000040412069   -0.1400
32     C32    -5.7036    5.6556   -5.3480 C.3      1 ZINC000040412069   -0.1400
33     C33    -4.9585    4.2096   -3.4690 C.3      1 ZINC000040412069   -0.0700
34     H34    -4.1268    4.1376   -4.2144 H        1 ZINC000040412069    0.0700
35     C35    -5.7924    2.9458   -3.6633 C.3      1 ZINC000040412069   -0.1100
36     C36    -4.8407    1.7390   -3.6306 C.3      1 ZINC000040412069   -0.1100
37     C37    -4.1671    1.6523   -2.2613 C.3      1 ZINC000040412069   -0.0300
38     C38    -5.2529    1.3164   -1.2268 C.3      1 ZINC000040412069   -0.1500
39     C39    -1.5460   -0.7471   -0.8302 C.3      1 ZINC000040412069   -0.0600
40     H40    -0.7726   -0.6186   -1.5949 H        1 ZINC000040412069    0.0600
41     H41     2.2369   -0.2625    1.8384 H        1 ZINC000040412069    0.0400
42     H42     0.6560   -0.1860    2.6527 H        1 ZINC000040412069    0.0500
43     H43     1.2609   -1.7389    2.0274 H        1 ZINC000040412069    0.0600
44     H44     0.4339    0.6888    0.3744 H        1 ZINC000040412069    0.0600
45     H45     0.9749   -0.6700   -1.5812 H        1 ZINC000040412069    0.0500
46     H46     2.4162   -0.5669   -0.5417 H        1 ZINC000040412069    0.0400
47     H47     1.4253   -2.0456   -0.5452 H        1 ZINC000040412069    0.0600
48     H48     0.3914   -2.8476    0.6038 H        1 ZINC000040412069    0.0400
49     H49    -1.2226   -3.0214    1.3473 H        1 ZINC000040412069    0.0800
50     H50    -0.4653   -3.0621   -1.6141 H        1 ZINC000040412069    0.0400
51     H51    -1.6548   -4.0908   -0.7416 H        1 ZINC000040412069    0.0600
52     H52    -2.0417   -1.9321   -3.2378 H        1 ZINC000040412069    0.0400
53     H53    -3.4186   -2.9314   -2.7345 H        1 ZINC000040412069    0.0400
54     H54    -4.0994   -0.7250   -3.7140 H        1 ZINC000040412069    0.0300
55     H55    -4.7093   -0.9910   -2.0819 H        1 ZINC000040412069    0.1000
56     H56    -2.5084    0.8813   -4.2785 H        1 ZINC000040412069    0.0500
57     H57    -1.5497    1.7257   -3.0390 H        1 ZINC000040412069    0.0500
58     H58    -1.3304   -0.0219   -3.2963 H        1 ZINC000040412069    0.0500
59     H59    -1.4145    1.6559    0.5155 H        1 ZINC000040412069    0.0500
60     H60    -0.9992    1.9389   -1.1841 H        1 ZINC000040412069    0.0500
61     H61    -3.5763    2.7140    0.2397 H        1 ZINC000040412069    0.0700
62     H62    -2.3031    3.8116   -0.3207 H        1 ZINC000040412069    0.0500
63     H63    -4.7992    4.3029   -0.0156 H        1 ZINC000040412069    0.0700
64     H64    -5.7797    5.3616   -1.0576 H        1 ZINC000040412069    0.0500
65     H65    -6.0673    3.6050   -1.0515 H        1 ZINC000040412069    0.0900
66     H66    -2.4065    5.3081   -1.5796 H        1 ZINC000040412069    0.1400
67     H67    -7.7270    6.2785   -3.7204 H        1 ZINC000040412069    0.0600
68     H68    -7.6568    4.5032   -3.8291 H        1 ZINC000040412069    0.0700
69     H69    -7.2566    5.3177   -2.2978 H        1 ZINC000040412069    0.0600
70     H70    -4.6717    5.7550   -5.6846 H        1 ZINC000040412069    0.0600
71     H71    -6.1598    4.7887   -5.8261 H        1 ZINC000040412069    0.0700
72     H72    -6.2611    6.5533   -5.6153 H        1 ZINC000040412069    0.0600
73     H73    -6.5509    2.8428   -2.9000 H        1 ZINC000040412069    0.0800
74     H74    -6.2747    2.9697   -4.6450 H        1 ZINC000040412069    0.0600
75     H75    -5.4159    0.8309   -3.8118 H        1 ZINC000040412069    0.0700
76     H76    -4.1029    1.8642   -4.4180 H        1 ZINC000040412069    0.0600
77     H77    -5.6174    0.3036   -1.3985 H        1 ZINC000040412069    0.0800
78     H78    -4.8328    1.3862   -0.2234 H        1 ZINC000040412069    0.0600
79     H79    -6.0785    2.0212   -1.3248 H        1 ZINC000040412069    0.0400
@<TRIPOS>BOND
1     1     2     1
2     1     41    1
3     1     42    1
4     1     43    1
5     2     3     1
6     2     4     1
7     2     44    1
8     3     45    1
9     3     46    1
10    3     47    1
11    4     5     1
12    4     39    1
13    4     6     1
14    6     7     1
15    6     48    1
16    6     49    1
17    7     8     1
18    7     50    1
19    7     51    1
20    8     39    1
21    8     9     1
22    8     12    1
23    9     10    ar
24    9     11    ar
25    12    13    1
26    12    52    1
27    12    53    1
28    13    14    1
29    13    54    1
30    13    55    1
31    14    37    1
32    14    15    1
33    14    16    1
34    15    56    1
35    15    57    1
36    15    58    1
37    16    17    1
38    16    18    1
39    16    39    1
40    18    19    1
41    18    59    1
42    18    60    1
43    19    20    1
44    19    61    1
45    19    62    1
46    20    21    1
47    20    37    1
48    20    22    1
49    22    33    1
50    22    23    1
51    22    24    1
52    23    63    1
53    23    64    1
54    23    65    1
55    24    25    2
56    24    66    1
57    25    26    1
58    25    28    1
59    26    27    3
60    28    29    2
61    28    30    1
62    30    31    1
63    30    32    1
64    30    33    1
65    31    67    1
66    31    68    1
67    31    69    1
68    32    70    1
69    32    71    1
70    32    72    1
71    33    34    1
72    33    35    1
73    35    36    1
74    35    73    1
75    35    74    1
76    36    37    1
77    36    75    1
78    36    76    1
79    37    38    1
80    38    77    1
81    38    78    1
82    38    79    1
83    39    40    1
@<TRIPOS>SUBSTRUCTURE
1   ZINC000040412069 1     RESIDUE    1   A     ZIN   1
