@<TRIPOS>MOLECULE
ZINC000014946023
  34   36    0    0    0
SMALL
USER_CHARGES
NO_NAME
@<TRIPOS>ATOM
    1 O1       -0.3249    -0.5291    -1.2066 O.co2  1 <0>      -0.6900
    2 C2       -0.6607     0.1663    -2.1550 C.2    1 <0>       0.5200
    3 O3        0.0867     0.2939    -3.1146 O.co2  1 <0>      -0.6600
    4 C4       -1.9693     0.8459    -2.1442 C.ar   1 <0>      -0.0900
    5 C5       -2.8248     0.7022    -1.0500 C.ar   1 <0>      -0.1100
    6 C6       -4.0533     1.3451    -1.0476 C.ar   1 <0>       0.1600
    7 N7       -4.9123     1.2045     0.0440 N.pl3  1 <0>      -0.6500
    8 C8       -6.0660     1.9562     0.1147 C.2    1 <0>       0.1700
    9 C9       -7.3489     1.4850     0.2146 C.2    1 <0>      -0.1600
   10 C10      -7.7699     0.0689     0.2685 C.ar   1 <0>      -0.0100
   11 C11      -7.5930    -0.6713     1.4389 C.ar   1 <0>      -0.0900
   12 C12      -7.9885    -1.9922     1.4827 C.ar   1 <0>      -0.1100
   13 C13      -8.5597    -2.5845     0.3702 C.ar   1 <0>      -0.1000
   14 C14      -8.7385    -1.8577    -0.7937 C.ar   1 <0>      -0.1100
   15 C15      -8.3523    -0.5336    -0.8502 C.ar   1 <0>      -0.0100
   16 Cl16     -8.5773     0.3771    -2.3109 Cl     1 <0>      -0.0600
   17 C17      -8.2270     2.6698     0.2585 C.2    1 <0>       0.5800
   18 O18      -9.4386     2.6506     0.3462 O.2    1 <0>      -0.4600
   19 N19      -7.4639     3.7740     0.1857 N.am   1 <0>      -0.6900
   20 C20      -6.1653     3.4352     0.1044 C.2    1 <0>       0.5400
   21 O21      -5.2331     4.2090     0.0265 O.2    1 <0>      -0.4300
   22 C22      -4.4303     2.1305    -2.1322 C.ar   1 <0>      -0.1500
   23 C23      -3.5847     2.2737    -3.2157 C.ar   1 <0>      -0.0900
   24 C24      -2.3562     1.6421    -3.2276 C.ar   1 <0>      -0.0300
   25 Cl25     -1.2984     1.8258    -4.5918 Cl     1 <0>      -0.0500
   26 H26      -2.5308     0.0921    -0.2088 H      1 <0>       0.1400
   27 H27      -4.6974     0.5780     0.7527 H      1 <0>       0.4200
   28 H28      -7.1470    -0.2108     2.3081 H      1 <0>       0.1300
   29 H29      -7.8517    -2.5656     2.3876 H      1 <0>       0.1300
   30 H30      -8.8671    -3.6190     0.4103 H      1 <0>       0.1300
   31 H31      -9.1850    -2.3262    -1.6583 H      1 <0>       0.1400
   32 H32      -7.8010     4.6835     0.1947 H      1 <0>       0.4300
   33 H33      -5.3878     2.6300    -2.1276 H      1 <0>       0.1100
   34 H34      -3.8838     2.8846    -4.0546 H      1 <0>       0.1300
@<TRIPOS>BOND
   1    1    2 ar
   2    2    3 ar
   3    2    4 1
   4    4   24 ar
   5    4    5 ar
   6    5    6 ar
   7    5   26 1
   8    6    7 1
   9    6   22 ar
  10    7    8 1
  11    7   27 1
  12    8   20 1
  13    8    9 2
  14    9   10 1
  15    9   17 1
  16   10   15 ar
  17   10   11 ar
  18   11   12 ar
  19   11   28 1
  20   12   13 ar
  21   12   29 1
  22   13   14 ar
  23   13   30 1
  24   14   15 ar
  25   14   31 1
  26   15   16 1
  27   17   18 2
  28   17   19 am
  29   19   20 am
  30   19   32 1
  31   20   21 2
  32   22   23 ar
  33   22   33 1
  34   23   24 ar
  35   23   34 1
  36   24   25 1
