@<TRIPOS>MOLECULE
ZINC000058638704
59    62    1     0     0
SMALL
USER_CHARGES
@<TRIPOS>ATOM
1      C1     -0.0173    1.4248    0.0099 C.3      1 ZINC000058638704    0.0200
2      O2      0.0021   -0.0041    0.0020 O.3      1 ZINC000058638704   -0.3000
3      C3      0.6256   -0.6181    1.0411 C.ar     1 ZINC000058638704    0.1500
4      C4      0.6825   -2.0179    1.0863 C.ar     1 ZINC000058638704    0.0900
5      O5      0.1128   -2.7465    0.0893 O.3      1 ZINC000058638704   -0.3000
6      C6      0.2039   -4.1689    0.1918 C.3      1 ZINC000058638704    0.0300
7      C7      1.3043   -2.6586    2.1206 C.ar     1 ZINC000058638704   -0.1500
8      C8      1.8911   -1.9106    3.1475 C.ar     1 ZINC000058638704   -0.2100
9      C9      1.8374   -0.4947    3.1092 C.ar     1 ZINC000058638704    0.2100
10     C10     1.2000    0.1415    2.0362 C.ar     1 ZINC000058638704   -0.1700
11     N11     2.4071    0.2007    4.1042 N.ar     1 ZINC000058638704   -0.4700
12     C12     3.0065   -0.4260    5.0998 C.ar     1 ZINC000058638704    0.4400
13     C13     3.6229    0.3808    6.1784 C.ar     1 ZINC000058638704   -0.2100
14     C14     4.2687   -0.2485    7.2415 C.ar     1 ZINC000058638704   -0.0400
15     C15     4.8424    0.5090    8.2445 C.ar     1 ZINC000058638704   -0.0700
16     F16     5.4686   -0.1009    9.2746 F        1 ZINC000058638704   -0.1700
17     C17     4.7778    1.8926    8.1970 C.ar     1 ZINC000058638704   -0.0800
18     C18     4.1394    2.5251    7.1474 C.ar     1 ZINC000058638704   -0.2300
19     C19     3.5647    1.7778    6.1318 C.ar     1 ZINC000058638704    0.3000
20     O20     2.9376    2.3994    5.0998 O.3      1 ZINC000058638704   -0.6500
21     N21     3.0791   -1.7542    5.1744 N.ar     1 ZINC000058638704   -0.5800
22     C22     2.5474   -2.5283    4.2405 C.ar     1 ZINC000058638704    0.4500
23     N23     2.6296   -3.9026    4.3305 N.pl3    1 ZINC000058638704   -0.7100
24     C24     3.3112   -4.5226    5.4694 C.3      1 ZINC000058638704    0.1400
25     H25     3.1591   -3.9281    6.3703 H        1 ZINC000058638704    0.1500
26     C26     4.8191   -4.6733    5.1746 C.3      1 ZINC000058638704   -0.0200
27     N27     4.9625   -6.0576    4.6549 N.4      1 ZINC000058638704   -0.5200
28     H28     4.6840   -6.1014    3.6861 H        1 ZINC000058638704    0.4300
29     H29     5.9128   -6.3788    4.7638 H        1 ZINC000058638704    0.4300
30     C30     4.0399   -6.8612    5.4976 C.3      1 ZINC000058638704    0.0000
31     C31     2.7967   -5.9610    5.6835 C.3      1 ZINC000058638704   -0.1500
32     H32     2.0375   -6.2059    4.9407 H        1 ZINC000058638704    0.1100
33     C33     2.2295   -6.1233    7.0952 C.3      1 ZINC000058638704    0.1400
34     C34     1.9095   -7.5976    7.3499 C.3      1 ZINC000058638704   -0.1900
35     C35     3.2606   -5.6413    8.1177 C.3      1 ZINC000058638704   -0.1600
36     O36     1.0356   -5.3481    7.2209 O.3      1 ZINC000058638704   -0.5400
37     H37     1.0053    1.8021    0.0021 H        1 ZINC000058638704    0.0600
38     H38    -0.5445    1.7859   -0.8732 H        1 ZINC000058638704    0.1000
39     H39    -0.5275    1.7763    0.9067 H        1 ZINC000058638704    0.0600
40     H40     1.2526   -4.4655    0.2089 H        1 ZINC000058638704    0.0500
41     H41    -0.2820   -4.4988    1.1101 H        1 ZINC000058638704    0.0500
42     H42    -0.2895   -4.6272   -0.6652 H        1 ZINC000058638704    0.1000
43     H43     1.3424   -3.7377    2.1457 H        1 ZINC000058638704    0.1300
44     H44     1.1519    1.2196    1.9939 H        1 ZINC000058638704    0.1600
45     H45     4.3202   -1.3265    7.2812 H        1 ZINC000058638704    0.1100
46     H46     5.2282    2.4791    8.9842 H        1 ZINC000058638704    0.1100
47     H47     4.0918    3.6037    7.1165 H        1 ZINC000058638704    0.1100
48     H48     2.2360   -4.4583    3.6397 H        1 ZINC000058638704    0.4000
49     H49     5.1334   -3.9502    4.4220 H        1 ZINC000058638704    0.1400
50     H50     5.3995   -4.5484    6.0888 H        1 ZINC000058638704    0.1500
51     H51     3.7675   -7.7855    4.9881 H        1 ZINC000058638704    0.1400
52     H52     4.4984   -7.0787    6.4623 H        1 ZINC000058638704    0.1400
53     H53     2.8201   -8.1889    7.2540 H        1 ZINC000058638704    0.0700
54     H54     1.5054   -7.7133    8.3556 H        1 ZINC000058638704    0.0800
55     H55     1.1749   -7.9411    6.6215 H        1 ZINC000058638704    0.0600
56     H56     3.4886   -4.5909    7.9362 H        1 ZINC000058638704    0.0800
57     H57     2.8565   -5.7569    9.1234 H        1 ZINC000058638704    0.0800
58     H58     4.1712   -6.2325    8.0218 H        1 ZINC000058638704    0.0700
59     H59     0.3365   -5.5994    6.6019 H        1 ZINC000058638704    0.3800
@<TRIPOS>BOND
1     1     2     1
2     1     37    1
3     1     38    1
4     1     39    1
5     2     3     1
6     3     10    ar
7     3     4     ar
8     4     5     1
9     4     7     ar
10    5     6     1
11    6     40    1
12    6     41    1
13    6     42    1
14    7     8     ar
15    7     43    1
16    8     22    ar
17    8     9     ar
18    9     10    ar
19    9     11    ar
20    10    44    1
21    11    12    ar
22    12    13    1
23    12    21    ar
24    13    19    ar
25    13    14    ar
26    14    15    ar
27    14    45    1
28    15    16    1
29    15    17    ar
30    17    18    ar
31    17    46    1
32    18    19    ar
33    18    47    1
34    19    20    1
35    21    22    ar
36    22    23    1
37    23    24    1
38    23    48    1
39    24    25    1
40    24    31    1
41    24    26    1
42    26    27    1
43    26    49    1
44    26    50    1
45    27    28    1
46    27    29    1
47    27    30    1
48    30    31    1
49    30    51    1
50    30    52    1
51    31    32    1
52    31    33    1
53    33    34    1
54    33    35    1
55    33    36    1
56    34    53    1
57    34    54    1
58    34    55    1
59    35    56    1
60    35    57    1
61    35    58    1
62    36    59    1
@<TRIPOS>SUBSTRUCTURE
1   ZINC000058638704 1     RESIDUE    1   A     ZIN   1
