@<TRIPOS>MOLECULE
ZINC000017322920
  43   45    0    0    0
SMALL
USER_CHARGES
NO_NAME
@<TRIPOS>ATOM
    1 C1       -0.0187     1.5258     0.0104 C.3    1 <0>      -0.1600
    2 C2        0.0021    -0.0041     0.0020 C.3    1 <0>       0.1800
    3 H3       -1.0205    -0.3814     0.0098 H      1 <0>       0.1000
    4 N4        0.6878    -0.4765    -1.2033 N.am   1 <0>      -0.7300
    5 C5        0.0062    -0.6081    -2.3585 C.2    1 <0>       0.5100
    6 O6       -1.1748    -0.3355    -2.4003 O.2    1 <0>      -0.5400
    7 C7        0.7116    -1.0941    -3.5984 C.3    1 <0>      -0.1200
    8 C8       -0.2819    -1.1527    -4.7605 C.3    1 <0>      -0.0600
    9 C9        0.4235    -1.6387    -6.0004 C.2    1 <0>       0.4000
   10 N10       1.6869    -1.9263    -5.9174 N.2    1 <0>      -0.5200
   11 C11       2.3874    -2.3695    -6.9913 C.ar   1 <0>       0.1500
   12 C12       3.7457    -2.6794    -6.9028 C.ar   1 <0>      -0.1100
   13 C13       4.4172    -3.1267    -8.0187 C.ar   1 <0>      -0.0700
   14 C14       3.7602    -3.2739    -9.2329 C.ar   1 <0>      -0.1400
   15 C15       2.4199    -2.9741    -9.3454 C.ar   1 <0>      -0.0400
   16 C16       1.7220    -2.5205    -8.2284 C.ar   1 <0>      -0.2000
   17 C17       0.2916    -2.1849    -8.2883 C.2    1 <0>       0.5500
   18 O18      -0.3403    -2.2919    -9.3232 O.2    1 <0>      -0.5100
   19 N19      -0.2966    -1.7587    -7.1462 N.am   1 <0>      -0.6500
   20 C20       0.7309    -0.5033     1.2229 C.ar   1 <0>      -0.0900
   21 C21       2.1131    -0.5138     1.2466 C.ar   1 <0>      -0.1200
   22 C22       2.7816    -0.9717     2.3665 C.ar   1 <0>      -0.1200
   23 C23       2.0681    -1.4187     3.4629 C.ar   1 <0>      -0.1200
   24 C24       0.6860    -1.4074     3.4395 C.ar   1 <0>      -0.1200
   25 C25       0.0174    -0.9454     2.3212 C.ar   1 <0>      -0.1100
   26 H26       1.0039     1.9031     0.0027 H      1 <0>       0.0600
   27 H27      -0.5459     1.8868    -0.8726 H      1 <0>       0.0700
   28 H28      -0.5289     1.8773     0.9072 H      1 <0>       0.0700
   29 H29       1.6324    -0.6946    -1.1699 H      1 <0>       0.4000
   30 H30       1.5220    -0.4092    -3.8474 H      1 <0>       0.1100
   31 H31       1.1190    -2.0889    -3.4183 H      1 <0>       0.1100
   32 H32      -1.0924    -1.8377    -4.5115 H      1 <0>       0.1100
   33 H33      -0.6894    -0.1579    -4.9407 H      1 <0>       0.1100
   34 H34       4.2674    -2.5685    -5.9637 H      1 <0>       0.1400
   35 H35       5.4681    -3.3656    -7.9486 H      1 <0>       0.1400
   36 H36       4.3044    -3.6261   -10.0968 H      1 <0>       0.1300
   37 H37       1.9142    -3.0902   -10.2926 H      1 <0>       0.1400
   38 H38      -1.2389    -1.5286    -7.1479 H      1 <0>       0.4200
   39 H39       2.6705    -0.1645     0.3901 H      1 <0>       0.1200
   40 H40       3.8614    -0.9806     2.3848 H      1 <0>       0.1200
   41 H41       2.5905    -1.7771     4.3376 H      1 <0>       0.1200
   42 H42       0.1286    -1.7569     4.2959 H      1 <0>       0.1300
   43 H43      -1.0624    -0.9366     2.3030 H      1 <0>       0.1200
@<TRIPOS>BOND
   1    1    2 1
   2    1   26 1
   3    1   27 1
   4    1   28 1
   5    2    3 1
   6    2    4 1
   7    2   20 1
   8    4    5 am
   9    4   29 1
  10    5    6 2
  11    5    7 1
  12    7    8 1
  13    7   30 1
  14    7   31 1
  15    8    9 1
  16    8   32 1
  17    8   33 1
  18    9   19 1
  19    9   10 2
  20   10   11 1
  21   11   16 ar
  22   11   12 ar
  23   12   13 ar
  24   12   34 1
  25   13   14 ar
  26   13   35 1
  27   14   15 ar
  28   14   36 1
  29   15   16 ar
  30   15   37 1
  31   16   17 1
  32   17   18 2
  33   17   19 am
  34   19   38 1
  35   20   25 ar
  36   20   21 ar
  37   21   22 ar
  38   21   39 1
  39   22   23 ar
  40   22   40 1
  41   23   24 ar
  42   23   41 1
  43   24   25 ar
  44   24   42 1
  45   25   43 1
