@<TRIPOS>MOLECULE
ZINC000205442186
44    46    1     0     0
SMALL
USER_CHARGES
@<TRIPOS>ATOM
1      N1     -6.5140    6.2773  -12.5669 N.1      1 ZINC000205442186   -0.3700
2      C2     -6.1401    6.0142  -11.5270 C.1      1 ZINC000205442186    0.2600
3      C3     -5.6688    5.6825  -10.2161 C.ar     1 ZINC000205442186    0.1100
4      C4     -6.3490    6.1492   -9.0908 C.ar     1 ZINC000205442186    0.1400
5      N5     -5.9163    5.8386   -7.8828 N.ar     1 ZINC000205442186   -0.4700
6      C6     -4.8283    5.0916   -7.7389 C.ar     1 ZINC000205442186    0.3400
7      N7     -4.3710    4.7703   -6.4693 N.pl3    1 ZINC000205442186   -0.6200
8      C8     -3.0634    4.3272   -6.2920 C.ar     1 ZINC000205442186    0.4500
9      C9     -2.6569    3.8675   -5.0474 C.ar     1 ZINC000205442186   -0.2900
10     C10    -1.3449    3.4325   -4.8841 C.ar     1 ZINC000205442186    0.3300
11     N11    -0.8957    2.9678   -3.6513 N.pl3    1 ZINC000205442186   -0.7200
12     C12    -1.8060    2.9379   -2.5038 C.3      1 ZINC000205442186    0.1300
13     C13    -1.0680    2.3884   -1.2815 C.3      1 ZINC000205442186    0.0500
14     H14    -0.2170    3.0295   -1.0514 H        1 ZINC000205442186    0.1000
15     C15    -2.0200    2.3516   -0.0834 C.3      1 ZINC000205442186   -0.0400
16     N16    -1.3256    1.7695    1.0734 N.4      1 ZINC000205442186   -0.5100
17     H17    -0.5194    2.3323    1.3000 H        1 ZINC000205442186    0.4300
18     H18    -1.9518    1.7446    1.8642 H        1 ZINC000205442186    0.4400
19     C19    -0.8925    0.4035    0.7481 C.3      1 ZINC000205442186   -0.0500
20     C20     0.0565    0.4439   -0.4522 C.3      1 ZINC000205442186    0.0300
21     O21    -0.6065    1.0631   -1.5580 O.3      1 ZINC000205442186   -0.3500
22     C22    -0.4920    3.4685   -5.9892 C.ar     1 ZINC000205442186   -0.3500
23     C23     0.9361    3.0036   -5.8653 C.3      1 ZINC000205442186    0.5200
24     F24     1.5790    3.1377   -7.1006 F        1 ZINC000205442186   -0.1700
25     F25     1.5980    3.7804   -4.9084 F        1 ZINC000205442186   -0.1800
26     F26     0.9571    1.6612   -5.4720 F        1 ZINC000205442186   -0.1800
27     C27    -0.9713    3.9344   -7.1942 C.ar     1 ZINC000205442186    0.2500
28     N28    -2.2206    4.3444   -7.3149 N.ar     1 ZINC000205442186   -0.5600
29     C29    -4.1468    4.6240   -8.8655 C.ar     1 ZINC000205442186    0.0600
30     N30    -4.5796    4.9280  -10.0701 N.ar     1 ZINC000205442186   -0.3800
31     H31    -7.2316    6.7606   -9.2079 H        1 ZINC000205442186    0.1900
32     H32    -4.9624    4.8545   -5.7051 H        1 ZINC000205442186    0.4300
33     H33    -3.3472    3.8508   -4.2170 H        1 ZINC000205442186    0.1500
34     H34     0.0200    2.6637   -3.5519 H        1 ZINC000205442186    0.4100
35     H35    -2.6578    2.2973   -2.7323 H        1 ZINC000205442186    0.0900
36     H36    -2.1574    3.9479   -2.2924 H        1 ZINC000205442186    0.1000
37     H37    -2.3409    3.3650    0.1574 H        1 ZINC000205442186    0.1500
38     H38    -2.8903    1.7430   -0.3291 H        1 ZINC000205442186    0.1500
39     H39    -1.7633   -0.2046    0.5029 H        1 ZINC000205442186    0.1400
40     H40    -0.3764   -0.0289    1.6053 H        1 ZINC000205442186    0.1500
41     H41     0.3445   -0.5719   -0.7229 H        1 ZINC000205442186    0.1500
42     H42     0.9463    1.0178   -0.1935 H        1 ZINC000205442186    0.0800
43     H43    -0.3160    3.9644   -8.0521 H        1 ZINC000205442186    0.1800
44     H44    -3.2645    4.0124   -8.7473 H        1 ZINC000205442186    0.2100
@<TRIPOS>BOND
1     1     2     3
2     2     3     1
3     3     30    ar
4     3     4     ar
5     4     5     ar
6     4     31    1
7     5     6     ar
8     6     7     1
9     6     29    ar
10    7     8     1
11    7     32    1
12    8     28    ar
13    8     9     ar
14    9     10    ar
15    9     33    1
16    10    11    1
17    10    22    ar
18    11    12    1
19    11    34    1
20    12    13    1
21    12    35    1
22    12    36    1
23    13    14    1
24    13    21    1
25    13    15    1
26    15    16    1
27    15    37    1
28    15    38    1
29    16    17    1
30    16    18    1
31    16    19    1
32    19    20    1
33    19    39    1
34    19    40    1
35    20    21    1
36    20    41    1
37    20    42    1
38    22    23    1
39    22    27    ar
40    23    24    1
41    23    25    1
42    23    26    1
43    27    28    ar
44    27    43    1
45    29    30    ar
46    29    44    1
@<TRIPOS>SUBSTRUCTURE
1   ZINC000205442186 1     RESIDUE    1   A     ZIN   1
