@<TRIPOS>MOLECULE
ZINC000005932684
50    53    1     0     0
SMALL
USER_CHARGES
@<TRIPOS>ATOM
1      C1     -0.0178    1.4608    0.0101 C.3      1 ZINC000005932684    0.0700
2      N2      0.0021   -0.0041    0.0020 N.pl3    1 ZINC000005932684   -0.4700
3      C3      0.0078   -0.7714   -1.1169 C.2      1 ZINC000005932684    0.1100
4      C4      0.0282   -2.1024   -0.7613 C.2      1 ZINC000005932684   -0.1500
5      C5      0.0408   -3.2561   -1.6695 C.2      1 ZINC000005932684   -0.0200
6      C6      1.1171   -3.7231   -2.4126 C.2      1 ZINC000005932684   -0.0700
7      C7      2.4817   -3.1585   -2.4487 C.ar     1 ZINC000005932684    0.0100
8      C8      2.6965   -1.8757   -2.9593 C.ar     1 ZINC000005932684   -0.1500
9      C9      3.9721   -1.3507   -2.9913 C.ar     1 ZINC000005932684   -0.0700
10     C10     5.0410   -2.0896   -2.5195 C.ar     1 ZINC000005932684   -0.1900
11     C11     4.8383   -3.3675   -2.0092 C.ar     1 ZINC000005932684    0.2200
12     N12     5.9220   -4.1097   -1.5337 N.pl3    1 ZINC000005932684   -0.7400
13     C13     7.2721   -3.5421   -1.5727 C.3      1 ZINC000005932684    0.1000
14     C14     8.2668   -4.5522   -0.9972 C.3      1 ZINC000005932684    0.1000
15     H15     8.2399   -5.4666   -1.5898 H        1 ZINC000005932684    0.1100
16     O16     7.9143   -4.8504    0.3551 O.3      1 ZINC000005932684   -0.5500
17     C17     9.6767   -3.9594   -1.0379 C.3      1 ZINC000005932684    0.0500
18     O18    10.6199   -4.9438   -0.6097 O.3      1 ZINC000005932684   -0.5600
19     C19     3.5606   -3.9024   -1.9674 C.ar     1 ZINC000005932684   -0.1600
20     C20     0.6244   -4.8951   -3.1580 C.2      1 ZINC000005932684    0.5600
21     O21     1.2816   -5.5756   -3.9209 O.2      1 ZINC000005932684   -0.4500
22     N22    -0.6703   -5.0882   -2.8555 N.am     1 ZINC000005932684   -0.6900
23     C23    -1.0920   -4.1642   -1.9752 C.2      1 ZINC000005932684    0.5600
24     O24    -2.2124   -4.0814   -1.5149 O.2      1 ZINC000005932684   -0.4400
25     C25     0.0354   -2.1375    0.7127 C.ar     1 ZINC000005932684   -0.0500
26     C26     0.0542   -3.1646    1.6531 C.ar     1 ZINC000005932684   -0.1100
27     C27     0.0560   -2.8584    2.9990 C.ar     1 ZINC000005932684    0.0800
28     F28     0.0742   -3.8511    3.9152 F        1 ZINC000005932684   -0.1400
29     C29     0.0397   -1.5334    3.4146 C.ar     1 ZINC000005932684   -0.1300
30     C30     0.0206   -0.5088    2.4929 C.ar     1 ZINC000005932684   -0.0900
31     C31     0.0236   -0.7975    1.1323 C.ar     1 ZINC000005932684    0.0800
32     H32     1.0048    1.8381    0.0023 H        1 ZINC000005932684    0.0800
33     H33    -0.5450    1.8219   -0.8730 H        1 ZINC000005932684    0.0900
34     H34    -0.5280    1.8123    0.9069 H        1 ZINC000005932684    0.0900
35     H35    -0.0024   -0.3968   -2.1298 H        1 ZINC000005932684    0.1800
36     H36     1.8642   -1.2953   -3.3292 H        1 ZINC000005932684    0.1200
37     H37     4.1362   -0.3592   -3.3867 H        1 ZINC000005932684    0.1300
38     H38     6.0371   -1.6733   -2.5476 H        1 ZINC000005932684    0.1200
39     H39     5.7807   -5.0009   -1.1778 H        1 ZINC000005932684    0.4100
40     H40     7.5409   -3.3146   -2.6042 H        1 ZINC000005932684    0.0700
41     H41     7.2990   -2.6276   -0.9801 H        1 ZINC000005932684    0.0700
42     H42     7.9174   -4.0812    0.9412 H        1 ZINC000005932684    0.3800
43     H43     9.9115   -3.6500   -2.0564 H        1 ZINC000005932684    0.0600
44     H44     9.7269   -3.0955   -0.3751 H        1 ZINC000005932684    0.0500
45     H45    11.5368   -4.6365   -0.6103 H        1 ZINC000005932684    0.3800
46     H46     3.4011   -4.8943   -1.5712 H        1 ZINC000005932684    0.1200
47     H47    -1.2226   -5.7981   -3.2186 H        1 ZINC000005932684    0.4300
48     H48     0.0670   -4.1953    1.3309 H        1 ZINC000005932684    0.1300
49     H49     0.0416   -1.3037    4.4699 H        1 ZINC000005932684    0.1400
50     H50     0.0076    0.5181    2.8270 H        1 ZINC000005932684    0.1300
@<TRIPOS>BOND
1     1     2     1
2     1     32    1
3     1     33    1
4     1     34    1
5     2     31    1
6     2     3     1
7     3     4     2
8     3     35    1
9     4     5     1
10    4     25    1
11    5     23    1
12    5     6     2
13    6     7     1
14    6     20    1
15    7     19    ar
16    7     8     ar
17    8     9     ar
18    8     36    1
19    9     10    ar
20    9     37    1
21    10    11    ar
22    10    38    1
23    11    12    1
24    11    19    ar
25    12    13    1
26    12    39    1
27    13    14    1
28    13    40    1
29    13    41    1
30    14    15    1
31    14    16    1
32    14    17    1
33    16    42    1
34    17    18    1
35    17    43    1
36    17    44    1
37    18    45    1
38    19    46    1
39    20    21    2
40    20    22    am
41    22    23    am
42    22    47    1
43    23    24    2
44    25    31    ar
45    25    26    ar
46    26    27    ar
47    26    48    1
48    27    28    1
49    27    29    ar
50    29    30    ar
51    29    49    1
52    30    31    ar
53    30    50    1
@<TRIPOS>SUBSTRUCTURE
1   ZINC000005932684 1     RESIDUE    1   A     ZIN   1
