@<TRIPOS>MOLECULE
ZINC000003820040
  61   65    0    0    0
SMALL
USER_CHARGES
NO_NAME
@<TRIPOS>ATOM
    1 C1       -0.0673    -0.3374     2.4943 C.3    1 <0>      -0.1000
    2 C2       -0.0528    -0.8185     1.0662 C.2    1 <0>       0.1200
    3 C3       -0.0188    -2.1082     0.6608 C.2    1 <0>      -0.2900
    4 C4       -0.0166    -2.1185    -0.7434 C.2    1 <0>       0.3300
    5 N5        0.0137    -3.2577    -1.5578 N.pl3  1 <0>      -0.6100
    6 C6       -0.0952    -3.1290    -2.9345 C.ar   1 <0>       0.4500
    7 C7       -0.1126    -1.8691    -3.5258 C.ar   1 <0>      -0.3500
    8 C8       -0.2235    -1.7886    -4.9112 C.ar   1 <0>       0.4700
    9 N9       -0.2444    -0.5552    -5.5436 N.pl3  1 <0>      -0.6000
   10 C10      -0.5826    -0.4441    -6.9706 C.3    1 <0>       0.1300
   11 C11      -1.6787     0.6148    -7.1301 C.3    1 <0>       0.0400
   12 N12      -1.2423     1.8660    -6.4960 N.3    1 <0>      -0.5400
   13 C13      -2.1880     2.9550    -6.7744 C.3    1 <0>       0.0200
   14 C14      -1.0507     1.6919    -5.0500 C.3    1 <0>       0.0400
   15 C15       0.0652     0.6777    -4.8038 C.3    1 <0>       0.1300
   16 N16      -0.3086    -2.9114    -5.6205 N.ar   1 <0>      -0.5800
   17 C17      -0.2889    -4.0944    -5.0236 C.ar   1 <0>       0.3600
   18 S18      -0.4039    -5.5529    -6.0054 S.3    1 <0>       0.1100
   19 C19      -0.1798    -6.7788    -4.7596 C.ar   1 <0>      -0.1500
   20 C20      -1.2847    -7.3712    -4.1612 C.ar   1 <0>      -0.0300
   21 C21      -1.1089    -8.3318    -3.1857 C.ar   1 <0>      -0.1600
   22 C22       0.1723    -8.7057    -2.8021 C.ar   1 <0>       0.1800
   23 N23       0.3505    -9.6808    -1.8119 N.am   1 <0>      -0.6700
   24 C24       1.3877    -9.5904    -0.9559 C.2    1 <0>       0.5400
   25 O25       2.1072    -8.6141    -0.9760 O.2    1 <0>      -0.5100
   26 C26       1.6533   -10.7022     0.0261 C.3    1 <0>      -0.2000
   27 C27       2.9146   -11.5427    -0.1827 C.3    1 <0>      -0.1500
   28 C28       2.8457   -10.5402     0.9711 C.3    1 <0>      -0.1400
   29 C29       1.2771    -8.1136    -3.4002 C.ar   1 <0>      -0.1300
   30 C30       1.1018    -7.1571    -4.3798 C.ar   1 <0>      -0.0300
   31 N31      -0.1790    -4.2090    -3.7083 N.ar   1 <0>      -0.5900
   32 N32      -0.0484    -0.8742    -1.1591 N.2    1 <0>      -0.3300
   33 N33      -0.0775    -0.0388    -0.0352 N.pl3  1 <0>      -0.4700
   34 H34      -1.0979    -0.2529     2.8388 H      1 <0>       0.0800
   35 H35       0.4688    -1.0486     3.1227 H      1 <0>       0.0900
   36 H36       0.4169     0.6373     2.5543 H      1 <0>       0.0800
   37 H37       0.0032    -2.9762     1.3031 H      1 <0>       0.1500
   38 H38       0.1108    -4.1366    -1.1590 H      1 <0>       0.4300
   39 H39      -0.0421    -0.9751    -2.9240 H      1 <0>       0.1900
   40 H40       0.3010    -0.1443    -7.5341 H      1 <0>       0.0700
   41 H41      -0.9454    -1.4046    -7.3368 H      1 <0>       0.1000
   42 H42      -1.8641     0.7896    -8.1899 H      1 <0>       0.0900
   43 H43      -2.5943     0.2653    -6.6530 H      1 <0>       0.0400
   44 H44      -3.1714     2.6906    -6.3855 H      1 <0>       0.0300
   45 H45      -1.8410     3.8695    -6.2933 H      1 <0>       0.0700
   46 H46      -2.2535     3.1131    -7.8509 H      1 <0>       0.0700
   47 H47      -0.7807     2.6478    -4.6012 H      1 <0>       0.0900
   48 H48      -1.9750     1.3274    -4.6019 H      1 <0>       0.0400
   49 H49       0.1333     0.4598    -3.7380 H      1 <0>       0.1000
   50 H50       1.0128     1.0826    -5.1589 H      1 <0>       0.0800
   51 H51      -2.2812    -7.0799    -4.4590 H      1 <0>       0.1300
   52 H52      -1.9679    -8.7924    -2.7204 H      1 <0>       0.1300
   53 H53      -0.2726   -10.4210    -1.7423 H      1 <0>       0.4100
   54 H54       0.7692   -11.2084     0.4136 H      1 <0>       0.1300
   55 H55       2.8604   -12.6023     0.0674 H      1 <0>       0.1100
   56 H56       3.5523   -11.2915    -1.0303 H      1 <0>       0.1000
   57 H57       3.4379    -9.6294     0.8825 H      1 <0>       0.1100
   58 H58       2.7461   -10.9402     1.9801 H      1 <0>       0.1100
   59 H59       2.2734    -8.4046    -3.1017 H      1 <0>       0.1400
   60 H60       1.9609    -6.6969    -4.8451 H      1 <0>       0.1300
   61 H61      -0.1040     0.9308    -0.0464 H      1 <0>       0.4400
@<TRIPOS>BOND
   1    1    2 1
   2    1   34 1
   3    1   35 1
   4    1   36 1
   5    2   33 1
   6    2    3 2
   7    3    4 1
   8    3   37 1
   9    4    5 1
  10    4   32 2
  11    5    6 1
  12    5   38 1
  13    6   31 ar
  14    6    7 ar
  15    7    8 ar
  16    7   39 1
  17    8    9 1
  18    8   16 ar
  19    9   15 1
  20    9   10 1
  21   10   11 1
  22   10   40 1
  23   10   41 1
  24   11   12 1
  25   11   42 1
  26   11   43 1
  27   12   13 1
  28   12   14 1
  29   13   44 1
  30   13   45 1
  31   13   46 1
  32   14   15 1
  33   14   47 1
  34   14   48 1
  35   15   49 1
  36   15   50 1
  37   16   17 ar
  38   17   18 1
  39   17   31 ar
  40   18   19 1
  41   19   30 ar
  42   19   20 ar
  43   20   21 ar
  44   20   51 1
  45   21   22 ar
  46   21   52 1
  47   22   23 1
  48   22   29 ar
  49   23   24 am
  50   23   53 1
  51   24   25 2
  52   24   26 1
  53   26   28 1
  54   26   27 1
  55   26   54 1
  56   27   28 1
  57   27   55 1
  58   27   56 1
  59   28   57 1
  60   28   58 1
  61   29   30 ar
  62   29   59 1
  63   30   60 1
  64   32   33 1
  65   33   61 1
