@<TRIPOS>MOLECULE
ZINC000100015656
65    68    1     0     0
SMALL
USER_CHARGES
@<TRIPOS>ATOM
1      C1     -0.0164    1.4861    0.6128 C.3      1 ZINC000100015656   -0.1700
2      C2      0.0011   -0.0408    0.5168 C.3      1 ZINC000100015656    0.1100
3      N3     -1.3705   -0.5372    0.3805 N.am     1 ZINC000100015656   -0.7200
4      C4     -1.6010   -1.8612    0.2785 C.2      1 ZINC000100015656    0.6000
5      O5     -0.6712   -2.6431    0.2996 O.2      1 ZINC000100015656   -0.5000
6      C6     -2.9886   -2.3634    0.1406 C.2      1 ZINC000100015656   -0.0200
7      N7     -4.0897   -1.6532    0.0961 N.2      1 ZINC000100015656   -0.3200
8      O8     -5.0771   -2.3359   -0.0217 O.3      1 ZINC000100015656    0.1300
9      C9     -4.8068   -3.6510   -0.0782 C.2      1 ZINC000100015656    0.0200
10     C10    -5.7785   -4.7498   -0.2194 C.ar     1 ZINC000100015656   -0.0700
11     C11    -6.8933   -4.8127    0.6207 C.ar     1 ZINC000100015656   -0.0500
12     C12    -7.7996   -5.8412    0.4852 C.ar     1 ZINC000100015656   -0.1100
13     C13    -9.0016   -5.9072    1.3917 C.3      1 ZINC000100015656   -0.0600
14     C14    -8.5384   -6.0100    2.8463 C.3      1 ZINC000100015656   -0.1500
15     C15    -9.8451   -4.6433    1.2132 C.3      1 ZINC000100015656   -0.1500
16     C16    -7.6094   -6.8181   -0.4852 C.ar     1 ZINC000100015656    0.1500
17     O17    -8.5078   -7.8286   -0.6128 O.3      1 ZINC000100015656   -0.4900
18     C18    -6.5057   -6.7647   -1.3245 C.ar     1 ZINC000100015656   -0.1700
19     C19    -5.5913   -5.7338   -1.2017 C.ar     1 ZINC000100015656    0.1600
20     O20    -4.5108   -5.6803   -2.0221 O.3      1 ZINC000100015656   -0.4800
21     C21    -3.4220   -3.7653    0.0182 C.2      1 ZINC000100015656   -0.0800
22     C22    -2.5927   -4.9918    0.0081 C.ar     1 ZINC000100015656    0.0000
23     C23    -2.6931   -5.9137    1.0502 C.ar     1 ZINC000100015656   -0.1000
24     C24    -1.9175   -7.0548    1.0351 C.ar     1 ZINC000100015656   -0.1100
25     C25    -1.0416   -7.2855   -0.0107 C.ar     1 ZINC000100015656   -0.0800
26     C26    -0.1975   -8.5339   -0.0209 C.3      1 ZINC000100015656    0.0900
27     N27    -0.9214   -9.6088   -0.7125 N.3      1 ZINC000100015656   -0.5300
28     C28    -2.3144   -9.6887   -0.2495 C.3      1 ZINC000100015656    0.0200
29     C29    -3.0464  -10.7790   -1.0364 C.3      1 ZINC000100015656    0.0600
30     O30    -2.3522  -12.0197   -0.8808 O.3      1 ZINC000100015656   -0.3900
31     C31    -0.9926  -11.9780   -1.3225 C.3      1 ZINC000100015656    0.0600
32     C32    -0.2398  -10.8998   -0.5385 C.3      1 ZINC000100015656    0.0200
33     C33    -0.9378   -6.3753   -1.0473 C.ar     1 ZINC000100015656   -0.1000
34     C34    -1.7118   -5.2330   -1.0463 C.ar     1 ZINC000100015656   -0.0600
35     H35     1.0041    1.8554    0.7142 H        1 ZINC000100015656    0.0800
36     H36    -0.4652    1.9018   -0.2893 H        1 ZINC000100015656    0.0600
37     H37    -0.6004    1.7888    1.4819 H        1 ZINC000100015656    0.0600
38     H38     0.5851   -0.3436   -0.3524 H        1 ZINC000100015656    0.0700
39     H39     0.4500   -0.4565    1.4189 H        1 ZINC000100015656    0.0700
40     H40    -2.1128    0.0870    0.3637 H        1 ZINC000100015656    0.4100
41     H41    -7.0441   -4.0556    1.3761 H        1 ZINC000100015656    0.1400
42     H42    -9.6002   -6.7822    1.1384 H        1 ZINC000100015656    0.0900
43     H43    -7.9398   -5.1350    3.0997 H        1 ZINC000100015656    0.0600
44     H44    -9.4078   -6.0578    3.5020 H        1 ZINC000100015656    0.0600
45     H45    -7.9375   -6.9105    2.9735 H        1 ZINC000100015656    0.0600
46     H46   -10.1751   -4.5701    0.1769 H        1 ZINC000100015656    0.0600
47     H47   -10.7145   -4.6910    1.8689 H        1 ZINC000100015656    0.0600
48     H48    -9.2466   -3.7683    1.4666 H        1 ZINC000100015656    0.0600
49     H49    -9.2299   -7.6377   -1.2269 H        1 ZINC000100015656    0.4000
50     H50    -6.3626   -7.5262   -2.0769 H        1 ZINC000100015656    0.1400
51     H51    -4.6367   -5.1232   -2.8024 H        1 ZINC000100015656    0.3900
52     H52    -3.3762   -5.7345    1.8673 H        1 ZINC000100015656    0.1200
53     H53    -1.9941   -7.7691    1.8415 H        1 ZINC000100015656    0.1200
54     H54     0.7398   -8.3344   -0.5402 H        1 ZINC000100015656    0.0900
55     H55     0.0129   -8.8386    1.0043 H        1 ZINC000100015656    0.0400
56     H56    -2.3315   -9.9327    0.8127 H        1 ZINC000100015656    0.0400
57     H57    -2.8072   -8.7300   -0.4113 H        1 ZINC000100015656    0.1000
58     H58    -4.0633  -10.8809   -0.6574 H        1 ZINC000100015656    0.1000
59     H59    -3.0761  -10.5084   -2.0919 H        1 ZINC000100015656    0.0600
60     H60    -0.5241  -12.9470   -1.1504 H        1 ZINC000100015656    0.1000
61     H61    -0.9626  -11.7422   -2.3863 H        1 ZINC000100015656    0.0600
62     H62     0.7818  -10.8252   -0.9113 H        1 ZINC000100015656    0.0900
63     H63    -0.2237  -11.1632    0.5191 H        1 ZINC000100015656    0.0400
64     H64    -0.2525   -6.5611   -1.8611 H        1 ZINC000100015656    0.1200
65     H65    -1.6299   -4.5232   -1.8561 H        1 ZINC000100015656    0.1200
@<TRIPOS>BOND
1     1     2     1
2     1     35    1
3     1     36    1
4     1     37    1
5     2     3     1
6     2     38    1
7     2     39    1
8     3     4     am
9     3     40    1
10    4     5     2
11    4     6     1
12    6     21    1
13    6     7     2
14    7     8     1
15    8     9     1
16    9     10    1
17    9     21    2
18    10    19    ar
19    10    11    ar
20    11    12    ar
21    11    41    1
22    12    13    1
23    12    16    ar
24    13    14    1
25    13    15    1
26    13    42    1
27    14    43    1
28    14    44    1
29    14    45    1
30    15    46    1
31    15    47    1
32    15    48    1
33    16    17    1
34    16    18    ar
35    17    49    1
36    18    19    ar
37    18    50    1
38    19    20    1
39    20    51    1
40    21    22    1
41    22    34    ar
42    22    23    ar
43    23    24    ar
44    23    52    1
45    24    25    ar
46    24    53    1
47    25    26    1
48    25    33    ar
49    26    27    1
50    26    54    1
51    26    55    1
52    27    32    1
53    27    28    1
54    28    29    1
55    28    56    1
56    28    57    1
57    29    30    1
58    29    58    1
59    29    59    1
60    30    31    1
61    31    32    1
62    31    60    1
63    31    61    1
64    32    62    1
65    32    63    1
66    33    34    ar
67    33    64    1
68    34    65    1
@<TRIPOS>SUBSTRUCTURE
1   ZINC000100015656 1     RESIDUE    1   A     ZIN   1
