@<TRIPOS>MOLECULE
ZINC000040422789
40    44    1     0     0
SMALL
USER_CHARGES
@<TRIPOS>ATOM
1      C1     -0.0178    1.4608    0.0101 C.3      1 ZINC000040422789    0.0700
2      N2      0.0021   -0.0041    0.0020 N.pl3    1 ZINC000040422789   -0.4700
3      C3      0.0078   -0.7750   -1.1187 C.2      1 ZINC000040422789    0.1100
4      C4      0.0272   -2.0938   -0.7692 C.2      1 ZINC000040422789   -0.1400
5      C5      0.0395   -3.2470   -1.6837 C.2      1 ZINC000040422789   -0.0200
6      C6      1.1168   -3.7114   -2.4283 C.2      1 ZINC000040422789   -0.0400
7      C7      2.4787   -3.1493   -2.4613 C.2      1 ZINC000040422789   -0.1400
8      C8      3.4400   -3.2696   -1.5059 C.2      1 ZINC000040422789    0.0600
9      O9      4.5492   -2.6215   -1.8930 O.3      1 ZINC000040422789   -0.1800
10     C10     4.3841   -2.0482   -3.1030 C.ar     1 ZINC000040422789    0.0500
11     C11     5.2163   -1.2872   -3.9143 C.ar     1 ZINC000040422789   -0.1000
12     C12     4.7595   -0.8273   -5.1314 C.ar     1 ZINC000040422789   -0.0900
13     C13     3.4723   -1.1160   -5.5583 C.ar     1 ZINC000040422789   -0.1300
14     C14     2.6315   -1.8694   -4.7669 C.ar     1 ZINC000040422789   -0.0700
15     C15     3.0841   -2.3448   -3.5403 C.ar     1 ZINC000040422789   -0.1000
16     C16     0.6216   -4.8828   -3.1792 C.2      1 ZINC000040422789    0.5600
17     O17     1.2763   -5.5621   -3.9446 O.2      1 ZINC000040422789   -0.4400
18     N18    -0.6734   -5.0726   -2.8748 N.am     1 ZINC000040422789   -0.6900
19     C19    -1.0906   -4.1499   -1.9914 C.2      1 ZINC000040422789    0.5600
20     O20    -2.2111   -4.0659   -1.5299 O.2      1 ZINC000040422789   -0.4400
21     C21     0.0340   -2.1369    0.7039 C.ar     1 ZINC000040422789   -0.0700
22     C22     0.0516   -3.1677    1.6404 C.ar     1 ZINC000040422789   -0.0300
23     C23     0.0528   -2.8674    2.9858 C.ar     1 ZINC000040422789   -0.1200
24     I24     0.0792   -4.4133    4.3994 I        1 ZINC000040422789   -0.0400
25     C25     0.0371   -1.5456    3.4080 C.ar     1 ZINC000040422789   -0.0700
26     C26     0.0192   -0.5160    2.4919 C.ar     1 ZINC000040422789   -0.1100
27     C27     0.0236   -0.7983    1.1301 C.ar     1 ZINC000040422789    0.1100
28     H28     1.0048    1.8381    0.0023 H        1 ZINC000040422789    0.0800
29     H29    -0.5450    1.8219   -0.8730 H        1 ZINC000040422789    0.0900
30     H30    -0.5280    1.8123    0.9069 H        1 ZINC000040422789    0.0900
31     H31    -0.0015   -0.4001   -2.1316 H        1 ZINC000040422789    0.1800
32     H32     3.3271   -3.8061   -0.5754 H        1 ZINC000040422789    0.2100
33     H33     6.2206   -1.0555   -3.5917 H        1 ZINC000040422789    0.1300
34     H34     5.4106   -0.2361   -5.7581 H        1 ZINC000040422789    0.1400
35     H35     3.1271   -0.7492   -6.5137 H        1 ZINC000040422789    0.1300
36     H36     1.6287   -2.0934   -5.0995 H        1 ZINC000040422789    0.1200
37     H37    -1.2286   -5.7798   -3.2389 H        1 ZINC000040422789    0.4300
38     H38     0.0638   -4.1972    1.3141 H        1 ZINC000040422789    0.1300
39     H39     0.0386   -1.3216    4.4645 H        1 ZINC000040422789    0.1300
40     H40     0.0067    0.5092    2.8313 H        1 ZINC000040422789    0.1300
@<TRIPOS>BOND
1     1     2     1
2     1     28    1
3     1     29    1
4     1     30    1
5     2     27    1
6     2     3     1
7     3     4     2
8     3     31    1
9     4     5     1
10    4     21    1
11    5     19    1
12    5     6     2
13    6     7     1
14    6     16    1
15    7     15    1
16    7     8     2
17    8     9     1
18    8     32    1
19    9     10    1
20    10    15    ar
21    10    11    ar
22    11    12    ar
23    11    33    1
24    12    13    ar
25    12    34    1
26    13    14    ar
27    13    35    1
28    14    15    ar
29    14    36    1
30    16    17    2
31    16    18    am
32    18    19    am
33    18    37    1
34    19    20    2
35    21    27    ar
36    21    22    ar
37    22    23    ar
38    22    38    1
39    23    24    1
40    23    25    ar
41    25    26    ar
42    25    39    1
43    26    27    ar
44    26    40    1
@<TRIPOS>SUBSTRUCTURE
1   ZINC000040422789 1     RESIDUE    1   A     ZIN   1
