@<TRIPOS>MOLECULE
ZINC000002015558
  52   53    0    0    0
SMALL
NO_CHARGES
@<TRIPOS>ATOM
   1 C1            -1.7657     1.1923    -1.5669 C.3     
   2 C2            -1.1025    -0.1490    -1.3877 C.2     
   3 C3            -0.9057    -0.6342    -0.1686 C.2     
   4 C4            -0.1201    -1.9065     0.0182 C.3     
   5 C5             1.3563    -1.5673     0.2330 C.3     
   6 O6             2.1013    -2.7738     0.4102 O.3     
   7 P7             3.6916    -2.7936     0.6608 P.3     
   8 O8             4.4116    -2.0136    -0.4913 O.co2   
   9 O9             4.0124    -2.1107     2.0338 O.co2   
  10 O10            4.1982    -4.2760     0.6839 O.co2   
  11 S11           -1.5630     0.2091     1.2319 S.3     
  12 C12           -2.7512    -0.9747     1.7720 C.2     
  13 O13           -2.8434    -2.0464     1.2041 O.2     
  14 C14           -3.6356    -0.6655     2.9148 C.ar    
  15 C15           -3.5363     0.5659     3.5650 C.ar    
  16 C16           -4.3652     0.8483     4.6309 C.ar    
  17 C17           -5.2935    -0.0856     5.0558 C.ar    
  18 C18           -5.3972    -1.3079     4.4158 C.ar    
  19 C19           -4.5779    -1.6011     3.3452 C.ar    
  20 N20           -0.6948    -0.8815    -2.5052 N.am    
  21 C21            0.3250    -0.4377    -3.2665 C.2     
  22 O22            0.9528     0.5434    -2.9275 O.2     
  23 C23           -1.3759    -2.1320    -2.8496 C.3     
  24 C24           -2.4986    -1.8438    -3.8127 C.ar    
  25 C25           -3.7963    -1.6987    -3.3639 C.ar    
  26 N26           -4.7590    -1.4452    -4.2394 N.ar    
  27 C27           -4.4944    -1.3305    -5.5251 C.ar    
  28 C28           -5.6220    -1.0413    -6.4821 C.3     
  29 N29           -3.2711    -1.4613    -5.9973 N.ar    
  30 C30           -2.2517    -1.7110    -5.1809 C.ar    
  31 N31           -0.9669    -1.8479    -5.6808 N.pl3   
  32 H32           -1.0177     1.9811    -1.4869 H       
  33 H33           -2.2367     1.2365    -2.5489 H       
  34 H34           -2.5224     1.3296    -0.7945 H       
  35 H35           -0.4997    -2.4436     0.8874 H       
  36 H36           -0.2240    -2.5313    -0.8689 H       
  37 H37            1.7359    -1.0302    -0.6362 H       
  38 H38            1.4602    -0.9426     1.1201 H       
  39 H39           -2.8119     1.2955     3.2346 H       
  40 H40           -4.2892     1.8004     5.1351 H       
  41 H41           -5.9399     0.1404     5.8910 H       
  42 H42           -6.1239    -2.0325     4.7524 H       
  43 H43           -4.6601    -2.5554     2.8463 H       
  44 H44            0.5833    -0.9556    -4.1784 H       
  45 H45           -0.6658    -2.8165    -3.3137 H       
  46 H46           -1.7806    -2.5863    -1.9453 H       
  47 H47           -4.0244    -1.7911    -2.3123 H       
  48 H48           -5.7386     0.0370    -6.5910 H       
  49 H49           -5.3966    -1.4822    -7.4531 H       
  50 H50           -6.5464    -1.4694    -6.0944 H       
  51 H51           -0.7832    -1.6390    -6.6100 H       
  52 H52           -0.2510    -2.1527    -5.1015 H       
@<TRIPOS>BOND
   1    1    2 1
   2    1   32 1
   3    1   33 1
   4    1   34 1
   5    2    3 2
   6    2   20 1
   7    3    4 1
   8    3   11 1
   9    4    5 1
  10    4   35 1
  11    4   36 1
  12    5    6 1
  13    5   37 1
  14    5   38 1
  15    6    7 1
  16    7    8 ar
  17    7    9 ar
  18    7   10 ar
  19   11   12 1
  20   12   13 2
  21   12   14 1
  22   14   19 ar
  23   14   15 ar
  24   15   16 ar
  25   15   39 1
  26   16   17 ar
  27   16   40 1
  28   17   18 ar
  29   17   41 1
  30   18   19 ar
  31   18   42 1
  32   19   43 1
  33   20   21 am
  34   20   23 1
  35   21   22 2
  36   21   44 1
  37   23   24 1
  38   23   45 1
  39   23   46 1
  40   24   30 ar
  41   24   25 ar
  42   25   26 ar
  43   25   47 1
  44   26   27 ar
  45   27   28 1
  46   27   29 ar
  47   28   48 1
  48   28   49 1
  49   28   50 1
  50   29   30 ar
  51   30   31 1
  52   31   51 1
  53   31   52 1
