@<TRIPOS>MOLECULE
ZINC000043208634
52    56    1     0     0
SMALL
USER_CHARGES
@<TRIPOS>ATOM
1      C1     -0.0173    1.4248    0.0099 C.3      1 ZINC000043208634    0.0600
2      O2      0.0021   -0.0041    0.0020 O.3      1 ZINC000043208634   -0.3200
3      C3      0.6051   -0.6064   -1.0545 C.ar     1 ZINC000043208634    0.2000
4      N4      1.1423    0.1337   -2.0083 N.ar     1 ZINC000043208634   -0.5000
5      C5      1.7389   -0.4043   -3.0542 C.ar     1 ZINC000043208634    0.0400
6      C6      1.8248   -1.7865   -3.1928 C.ar     1 ZINC000043208634   -0.1100
7      C7      2.4976   -2.3832   -4.3722 C.ar     1 ZINC000043208634    0.0200
8      C8      2.5713   -3.7790   -4.5012 C.ar     1 ZINC000043208634   -0.0900
9      C9      3.1820   -4.3496   -5.5719 C.ar     1 ZINC000043208634   -0.0900
10     C10     3.7519   -3.5407   -6.5724 C.ar     1 ZINC000043208634    0.1200
11     N11     4.3558   -4.0874   -7.6323 N.ar     1 ZINC000043208634   -0.4600
12     C12     4.8934   -3.3538   -8.5767 C.ar     1 ZINC000043208634    0.1200
13     C13     4.8675   -1.9643   -8.5325 C.ar     1 ZINC000043208634   -0.1500
14     C14     4.2579   -1.3236   -7.4626 C.ar     1 ZINC000043208634    0.0000
15     C15     4.2109    0.1549   -7.3823 C.ar     1 ZINC000043208634   -0.0400
16     C16     5.3656    0.9275   -7.5628 C.ar     1 ZINC000043208634   -0.1000
17     C17     5.2428    2.3030   -7.4736 C.ar     1 ZINC000043208634    0.0400
18     N18     4.0654    2.8453   -7.2257 N.ar     1 ZINC000043208634   -0.2400
19     N19     3.0043    2.1439   -7.0594 N.ar     1 ZINC000043208634   -0.2300
20     C20     3.0113    0.8277   -7.1294 C.ar     1 ZINC000043208634    0.0600
21     C21     3.6808   -2.1310   -6.4489 C.ar     1 ZINC000043208634   -0.0700
22     C22     3.0439   -1.5604   -5.3419 C.ar     1 ZINC000043208634   -0.1200
23     C23     1.2683   -2.6056   -2.2041 C.ar     1 ZINC000043208634   -0.1200
24     C24     0.6551   -2.0007   -1.1172 C.ar     1 ZINC000043208634    0.2400
25     N25     0.0841   -2.7772   -0.1021 N.pl3    1 ZINC000043208634   -1.0900
26     S26    -0.6453   -2.0433    1.1908 S.o2     1 ZINC000043208634    2.6300
27     O27     0.3847   -1.3761    1.9071 O.2      1 ZINC000043208634   -1.0100
28     O28    -1.7929   -1.3788    0.6802 O.2      1 ZINC000043208634   -1.0000
29     C29    -1.2397   -3.3209    2.2487 C.ar     1 ZINC000043208634   -0.6800
30     C30    -0.7120   -3.4686    3.5173 C.ar     1 ZINC000043208634    0.0200
31     C31    -1.1777   -4.4701    4.3484 C.ar     1 ZINC000043208634   -0.1900
32     C32    -2.1735   -5.3266    3.9106 C.ar     1 ZINC000043208634    0.1600
33     F33    -2.6288   -6.3050    4.7233 F        1 ZINC000043208634   -0.1300
34     C34    -2.7029   -5.1796    2.6399 C.ar     1 ZINC000043208634   -0.2200
35     C35    -2.2396   -4.1731    1.8106 C.ar     1 ZINC000043208634    0.2300
36     F36    -2.7553   -4.0285    0.5703 F        1 ZINC000043208634   -0.1100
37     H37     1.0053    1.8021    0.0021 H        1 ZINC000043208634    0.0500
38     H38    -0.5445    1.7859   -0.8732 H        1 ZINC000043208634    0.0500
39     H39    -0.5275    1.7763    0.9067 H        1 ZINC000043208634    0.0800
40     H40     2.1657    0.2354   -3.8124 H        1 ZINC000043208634    0.1400
41     H41     2.1368   -4.4079   -3.7383 H        1 ZINC000043208634    0.1400
42     H42     3.2305   -5.4252   -5.6552 H        1 ZINC000043208634    0.1400
43     H43     5.3704   -3.8429   -9.4131 H        1 ZINC000043208634    0.1600
44     H44     5.3194   -1.3869   -9.3255 H        1 ZINC000043208634    0.1400
45     H45     6.3204    0.4648   -7.7646 H        1 ZINC000043208634    0.1500
46     H46     6.1103    2.9326   -7.6065 H        1 ZINC000043208634    0.1800
47     H47     2.0971    0.2715   -6.9837 H        1 ZINC000043208634    0.1800
48     H48     2.9824   -0.4867   -5.2427 H        1 ZINC000043208634    0.1300
49     H49     1.3188   -3.6815   -2.2833 H        1 ZINC000043208634    0.1300
50     H50     0.0651   -2.8012    3.8595 H        1 ZINC000043208634    0.1600
51     H51    -0.7643   -4.5848    5.3396 H        1 ZINC000043208634    0.1500
52     H52    -3.4798   -5.8472    2.2976 H        1 ZINC000043208634    0.1500
@<TRIPOS>BOND
1     1     2     1
2     1     37    1
3     1     38    1
4     1     39    1
5     2     3     1
6     3     24    ar
7     3     4     ar
8     4     5     ar
9     5     6     ar
10    5     40    1
11    6     7     1
12    6     23    ar
13    7     22    ar
14    7     8     ar
15    8     9     ar
16    8     41    1
17    9     10    ar
18    9     42    1
19    10    21    ar
20    10    11    ar
21    11    12    ar
22    12    13    ar
23    12    43    1
24    13    14    ar
25    13    44    1
26    14    15    1
27    14    21    ar
28    15    20    ar
29    15    16    ar
30    16    17    ar
31    16    45    1
32    17    18    ar
33    17    46    1
34    18    19    ar
35    19    20    ar
36    20    47    1
37    21    22    ar
38    22    48    1
39    23    24    ar
40    23    49    1
41    24    25    1
42    25    26    1
43    26    27    2
44    26    28    2
45    26    29    1
46    29    35    ar
47    29    30    ar
48    30    31    ar
49    30    50    1
50    31    32    ar
51    31    51    1
52    32    33    1
53    32    34    ar
54    34    35    ar
55    34    52    1
56    35    36    1
@<TRIPOS>SUBSTRUCTURE
1   ZINC000043208634 1     RESIDUE    1   A     ZIN   1
