@<TRIPOS>MOLECULE
ZINC000000899870
41    42    1     0     0
SMALL
USER_CHARGES
@<TRIPOS>ATOM
1      O1      0.0021   -0.0041    0.0020 O.co2    1 ZINC000000899870   -0.6900
2      C2     -0.0145    1.2150    0.0087 C.2      1 ZINC000000899870    0.4900
3      O3      1.0330    1.8389    0.0021 O.co2    1 ZINC000000899870   -0.6800
4      C4     -1.3296    1.9507    0.0190 C.3      1 ZINC000000899870    0.0300
5      H5     -1.9385    1.6182   -0.8218 H        1 ZINC000000899870    0.0800
6      C6     -2.0662    1.6605    1.3283 C.3      1 ZINC000000899870   -0.0700
7      C7     -3.4323    2.2954    1.2875 C.ar     1 ZINC000000899870   -0.0600
8      C8     -3.6048    3.5900    1.7397 C.ar     1 ZINC000000899870   -0.1000
9      C9     -4.8564    4.1768    1.7048 C.ar     1 ZINC000000899870   -0.1300
10     C10    -5.9407    3.4671    1.2154 C.ar     1 ZINC000000899870    0.0700
11     O11    -7.1722    4.0429    1.1800 O.3      1 ZINC000000899870   -0.4900
12     C12    -5.7669    2.1635    0.7596 C.ar     1 ZINC000000899870    0.0800
13     O13    -6.8283    1.4628    0.2778 O.3      1 ZINC000000899870   -0.4900
14     C14    -4.5094    1.5833    0.7925 C.ar     1 ZINC000000899870   -0.1300
15     O15    -1.0907    3.3552   -0.0920 O.3      1 ZINC000000899870   -0.3200
16     C16    -1.0451    3.8723   -1.3374 C.2      1 ZINC000000899870    0.5000
17     O17    -1.2041    3.1491   -2.3025 O.2      1 ZINC000000899870   -0.5200
18     C18    -0.8118    5.2587   -1.5213 C.2      1 ZINC000000899870   -0.1700
19     C19    -0.7661    5.7764   -2.7682 C.2      1 ZINC000000899870   -0.0300
20     C20    -0.5244    7.2134   -2.9588 C.ar     1 ZINC000000899870   -0.0600
21     C21    -0.3354    8.0463   -1.8502 C.ar     1 ZINC000000899870   -0.0900
22     C22    -0.1090    9.3931   -2.0318 C.ar     1 ZINC000000899870   -0.1300
23     C23    -0.0680    9.9274   -3.3125 C.ar     1 ZINC000000899870    0.0900
24     O24     0.1552   11.2560   -3.4850 O.3      1 ZINC000000899870   -0.4900
25     C25    -0.2549    9.1038   -4.4226 C.ar     1 ZINC000000899870    0.0800
26     O26    -0.2134    9.6316   -5.6753 O.3      1 ZINC000000899870   -0.4900
27     C27    -0.4766    7.7522   -4.2503 C.ar     1 ZINC000000899870   -0.1100
28     H28    -2.1699    0.5830    1.4557 H        1 ZINC000000899870    0.1000
29     H29    -1.4990    2.0722    2.1631 H        1 ZINC000000899870    0.0800
30     H30    -2.7602    4.1444    2.1214 H        1 ZINC000000899870    0.1300
31     H31    -4.9887    5.1883    2.0594 H        1 ZINC000000899870    0.1300
32     H32    -7.3621    4.5152    0.3578 H        1 ZINC000000899870    0.3800
33     H33    -6.9687    1.5662   -0.6734 H        1 ZINC000000899870    0.3800
34     H34    -4.3719    0.5720    0.4394 H        1 ZINC000000899870    0.1300
35     H35    -0.6706    5.9008   -0.6644 H        1 ZINC000000899870    0.1400
36     H36    -0.9073    5.1343   -3.6251 H        1 ZINC000000899870    0.1400
37     H37    -0.3675    7.6335   -0.8527 H        1 ZINC000000899870    0.1400
38     H38     0.0367   10.0350   -1.1755 H        1 ZINC000000899870    0.1400
39     H39     1.0896   11.4900   -3.5700 H        1 ZINC000000899870    0.3900
40     H40     0.6683    9.6336   -6.0723 H        1 ZINC000000899870    0.3900
41     H41    -0.6211    7.1134   -5.1091 H        1 ZINC000000899870    0.1400
@<TRIPOS>BOND
1     1     2     ar
2     2     3     ar
3     2     4     1
4     4     5     1
5     4     6     1
6     4     15    1
7     6     7     1
8     6     28    1
9     6     29    1
10    7     14    ar
11    7     8     ar
12    8     9     ar
13    8     30    1
14    9     10    ar
15    9     31    1
16    10    11    1
17    10    12    ar
18    11    32    1
19    12    13    1
20    12    14    ar
21    13    33    1
22    14    34    1
23    15    16    1
24    16    17    2
25    16    18    1
26    18    19    2
27    18    35    1
28    19    20    1
29    19    36    1
30    20    27    ar
31    20    21    ar
32    21    22    ar
33    21    37    1
34    22    23    ar
35    22    38    1
36    23    24    1
37    23    25    ar
38    24    39    1
39    25    26    1
40    25    27    ar
41    26    40    1
42    27    41    1
@<TRIPOS>SUBSTRUCTURE
1   ZINC000000899870 1     RESIDUE    1   A     ZIN   1
