@<TRIPOS>MOLECULE
ZINC000001554668
  47   52    0    0    0
SMALL
USER_CHARGES
NO_NAME
@<TRIPOS>ATOM
    1 C1       -0.2654     1.4699     0.0442 C.3    1 <0>       0.0300
    2 N2       -0.3111     0.0057     0.0414 N.pl3  1 <0>      -0.5000
    3 C3       -0.5396    -0.7760    -1.0742 C.ar   1 <0>       0.1400
    4 C4       -0.5092    -2.1235    -0.6809 C.ar   1 <0>      -0.1100
    5 C5       -0.7131    -3.1299    -1.6244 C.ar   1 <0>      -0.0400
    6 C6       -0.9438    -2.7970    -2.9408 C.ar   1 <0>      -0.1600
    7 C7       -0.9740    -1.4658    -3.3302 C.ar   1 <0>      -0.0700
    8 C8       -0.7743    -0.4606    -2.4094 C.ar   1 <0>      -0.1500
    9 C9       -0.2444    -2.1302     0.7668 C.ar   1 <0>       0.0000
   10 C10      -0.1257    -0.7955     1.1561 C.ar   1 <0>       0.1100
   11 C11       0.1313    -0.4835     2.4992 C.ar   1 <0>       0.1600
   12 C12       0.2666    -1.5167     3.4383 C.ar   1 <0>      -0.0600
   13 C13       0.5275    -0.8662     4.7371 C.ar   1 <0>      -0.0900
   14 C14       0.7460    -1.3504     6.0242 C.ar   1 <0>      -0.0600
   15 C15       0.9669    -0.4669     7.0594 C.ar   1 <0>      -0.1400
   16 C16       0.9721     0.8989     6.8226 C.ar   1 <0>      -0.0800
   17 C17       0.7571     1.3914     5.5532 C.ar   1 <0>      -0.1400
   18 C18       0.5323     0.5157     4.4955 C.ar   1 <0>       0.1400
   19 N19       0.2932     0.7229     3.1493 N.pl3  1 <0>      -0.4900
   20 C20       0.2208     2.0367     2.5050 C.3    1 <0>       0.0600
   21 C21      -1.2258     2.5346     2.5231 C.3    1 <0>      -0.0500
   22 C22      -1.3203     3.7951     1.7688 C.1    1 <0>       0.1900
   23 N23      -1.3932     4.7679     1.1867 N.1    1 <0>      -0.4000
   24 C24       0.1477    -2.8448     3.0463 C.ar   1 <0>      -0.0500
   25 C25      -0.1029    -3.1671     1.7167 C.ar   1 <0>      -0.1300
   26 C26      -0.1775    -4.6314     1.5994 C.2    1 <0>       0.5700
   27 O27      -0.3851    -5.2352     0.5643 O.2    1 <0>      -0.5200
   28 N28       0.0167    -5.2077     2.7979 N.am   1 <0>      -0.7200
   29 C29       0.2381    -4.1526     3.7935 C.3    1 <0>       0.1400
   30 H30       0.7730     1.8010     0.0591 H      1 <0>       0.0800
   31 H31      -0.7551     1.8505    -0.8522 H      1 <0>       0.0900
   32 H32      -0.7800     1.8479     0.9276 H      1 <0>       0.1100
   33 H33      -0.6898    -4.1670    -1.3240 H      1 <0>       0.1500
   34 H34      -1.1016    -3.5752    -3.6728 H      1 <0>       0.1300
   35 H35      -1.1553    -1.2151    -4.3649 H      1 <0>       0.1300
   36 H36      -0.7999     0.5723    -2.7237 H      1 <0>       0.1200
   37 H37       0.7421    -2.4141     6.2110 H      1 <0>       0.1300
   38 H38       1.1363    -0.8404     8.0586 H      1 <0>       0.1300
   39 H39       1.1456     1.5832     7.6399 H      1 <0>       0.1300
   40 H40       0.7631     2.4573     5.3795 H      1 <0>       0.1200
   41 H41       0.8543     2.7411     3.0441 H      1 <0>       0.1100
   42 H42       0.5641     1.9550     1.4737 H      1 <0>       0.1300
   43 H43      -1.8730     1.7872     2.0642 H      1 <0>       0.1200
   44 H44      -1.5391     2.7033     3.5533 H      1 <0>       0.1300
   45 H45       0.0136    -6.1615     2.9747 H      1 <0>       0.4300
   46 H46       1.2241    -4.2637     4.2445 H      1 <0>       0.1000
   47 H47      -0.5334    -4.1949     4.5624 H      1 <0>       0.1000
@<TRIPOS>BOND
   1    1    2 1
   2    1   30 1
   3    1   31 1
   4    1   32 1
   5    2   10 1
   6    2    3 1
   7    3    8 ar
   8    3    4 ar
   9    4    5 ar
  10    4    9 1
  11    5    6 ar
  12    5   33 1
  13    6    7 ar
  14    6   34 1
  15    7    8 ar
  16    7   35 1
  17    8   36 1
  18    9   25 ar
  19    9   10 ar
  20   10   11 ar
  21   11   19 1
  22   11   12 ar
  23   12   13 1
  24   12   24 ar
  25   13   18 ar
  26   13   14 ar
  27   14   15 ar
  28   14   37 1
  29   15   16 ar
  30   15   38 1
  31   16   17 ar
  32   16   39 1
  33   17   18 ar
  34   17   40 1
  35   18   19 1
  36   19   20 1
  37   20   21 1
  38   20   41 1
  39   20   42 1
  40   21   22 1
  41   21   43 1
  42   21   44 1
  43   22   23 3
  44   24   29 1
  45   24   25 ar
  46   25   26 1
  47   26   27 2
  48   26   28 am
  49   28   29 1
  50   28   45 1
  51   29   46 1
  52   29   47 1
