@<TRIPOS>MOLECULE
ZINC000653843540
76    80    1     0     0
SMALL
USER_CHARGES
@<TRIPOS>ATOM
1      C1      4.1775   -0.0785    2.7970 C.3      1 ZINC000653843540   -0.1800
2      C2      2.9106    0.6513    2.3461 C.3      1 ZINC000653843540    0.0700
3      C3      3.1513    1.2932    0.9783 C.3      1 ZINC000653843540   -0.1500
4      O4      1.8319   -0.2812    2.2515 O.3      1 ZINC000653843540   -0.3100
5      C5      1.1880   -0.5974    3.4035 C.ar     1 ZINC000653843540    0.1500
6      C6      1.5559    0.0176    4.5945 C.ar     1 ZINC000653843540   -0.2200
7      C7      0.9051   -0.3004    5.7655 C.ar     1 ZINC000653843540   -0.0200
8      C8     -0.1266   -1.2430    5.7555 C.ar     1 ZINC000653843540   -0.1600
9      C9     -0.8271   -1.5865    7.0081 C.2      1 ZINC000653843540    0.5600
10     O10    -0.5069   -1.0491    8.0509 O.2      1 ZINC000653843540   -0.5200
11     N11    -1.8219   -2.4958    6.9964 N.am     1 ZINC000653843540   -0.6200
12     C12    -2.5672   -2.7319    8.1560 C.2      1 ZINC000653843540    0.0800
13     C13    -2.0874   -2.9232    9.4392 C.2      1 ZINC000653843540    0.0300
14     C14    -0.6715   -2.9197    9.8629 C.ar     1 ZINC000653843540   -0.0100
15     C15     0.2933   -3.5634    9.0858 C.ar     1 ZINC000653843540   -0.0600
16     C16     1.6131   -3.5574    9.4844 C.ar     1 ZINC000653843540   -0.1500
17     C17     1.9832   -2.9127   10.6571 C.ar     1 ZINC000653843540    0.1300
18     O18     3.2852   -2.9091   11.0465 O.3      1 ZINC000653843540   -0.3100
19     C19     3.5797   -2.3329   12.3206 C.3      1 ZINC000653843540    0.0800
20     C20     4.8771   -2.9344   12.8647 C.3      1 ZINC000653843540   -0.1500
21     C21     3.7431   -0.8191   12.1702 C.3      1 ZINC000653843540   -0.1800
22     C22     1.0268   -2.2713   11.4328 C.ar     1 ZINC000653843540   -0.2000
23     C23    -0.2943   -2.2677   11.0384 C.ar     1 ZINC000653843540   -0.0600
24     N24    -3.1807   -3.1163   10.2396 N.pl3    1 ZINC000653843540   -0.2500
25     C25    -3.1332   -3.3462   11.6203 C.ar     1 ZINC000653843540    0.1200
26     C26    -2.0869   -4.0782   12.1672 C.ar     1 ZINC000653843540   -0.0800
27     C27    -2.0403   -4.3041   13.5280 C.ar     1 ZINC000653843540   -0.1700
28     C28    -3.0389   -3.8004   14.3500 C.ar     1 ZINC000653843540    0.1200
29     O29    -2.9924   -4.0231   15.6898 O.3      1 ZINC000653843540   -0.2600
30     C30    -1.8949   -4.6443   16.1956 C.ar     1 ZINC000653843540    0.0900
31     C31    -0.7117   -3.9387   16.3620 C.ar     1 ZINC000653843540   -0.1300
32     C32     0.4026   -4.5726   16.8763 C.ar     1 ZINC000653843540   -0.1100
33     C33     0.3399   -5.9093   17.2248 C.ar     1 ZINC000653843540   -0.1200
34     C34    -0.8379   -6.6147   17.0600 C.ar     1 ZINC000653843540   -0.1100
35     C35    -1.9569   -5.9840   16.5518 C.ar     1 ZINC000653843540   -0.1200
36     C36    -4.0845   -3.0689   13.8041 C.ar     1 ZINC000653843540   -0.1300
37     C37    -4.1292   -2.8375   12.4441 C.ar     1 ZINC000653843540   -0.0700
38     N38    -4.2562   -3.0553    9.5412 N.2      1 ZINC000653843540   -0.2500
39     C39    -3.9782   -2.8205    8.2705 C.2      1 ZINC000653843540    0.0000
40     C40    -4.9514   -2.6851    7.1763 C.2      1 ZINC000653843540    0.5600
41     O41    -6.1506   -2.6984    7.4189 O.co2    1 ZINC000653843540   -0.6700
42     O42    -4.5619   -2.5592    6.0232 O.co2    1 ZINC000653843540   -0.6800
43     C43    -0.4935   -1.8591    4.5560 C.ar     1 ZINC000653843540   -0.0400
44     C44     0.1586   -1.5313    3.3883 C.ar     1 ZINC000653843540   -0.1600
45     H45     4.4287   -0.8523    2.0716 H        1 ZINC000653843540    0.0700
46     H46     5.0003    0.6328    2.8692 H        1 ZINC000653843540    0.0700
47     H47     4.0060   -0.5358    3.7715 H        1 ZINC000653843540    0.0600
48     H48     2.6594    1.4251    3.0715 H        1 ZINC000653843540    0.0800
49     H49     3.4025    0.5194    0.2529 H        1 ZINC000653843540    0.0700
50     H50     2.2487    1.8131    0.6571 H        1 ZINC000653843540    0.0700
51     H51     3.9741    2.0045    1.0505 H        1 ZINC000653843540    0.0800
52     H52     2.3536    0.7457    4.6014 H        1 ZINC000653843540    0.1300
53     H53     1.1918    0.1776    6.6905 H        1 ZINC000653843540    0.1400
54     H54    -2.0209   -2.9865    6.1836 H        1 ZINC000653843540    0.4200
55     H55     0.0061   -4.0657    8.1739 H        1 ZINC000653843540    0.1200
56     H56     2.3600   -4.0551    8.8838 H        1 ZINC000653843540    0.1300
57     H57     2.7637   -2.5434   13.0119 H        1 ZINC000653843540    0.0700
58     H58     5.6931   -2.7239   12.1734 H        1 ZINC000653843540    0.0700
59     H59     5.1017   -2.4949   13.8365 H        1 ZINC000653843540    0.0700
60     H60     4.7607   -4.0128   12.9718 H        1 ZINC000653843540    0.0600
61     H61     2.8189   -0.3907   11.7826 H        1 ZINC000653843540    0.0700
62     H62     3.9678   -0.3796   13.1421 H        1 ZINC000653843540    0.0700
63     H63     4.5591   -0.6087   11.4789 H        1 ZINC000653843540    0.0700
64     H64     1.3188   -1.7710   12.3443 H        1 ZINC000653843540    0.1300
65     H65    -1.0376   -1.7686   11.6423 H        1 ZINC000653843540    0.1200
66     H66    -1.3102   -4.4708   11.5276 H        1 ZINC000653843540    0.1400
67     H67    -1.2269   -4.8731   13.9533 H        1 ZINC000653843540    0.1300
68     H68    -0.6620   -2.8949   16.0893 H        1 ZINC000653843540    0.1300
69     H69     1.3237   -4.0239   17.0061 H        1 ZINC000653843540    0.1300
70     H70     1.2125   -6.4032   17.6261 H        1 ZINC000653843540    0.1300
71     H71    -0.8841   -7.6587   17.3326 H        1 ZINC000653843540    0.1300
72     H72    -2.8766   -6.5353   16.4237 H        1 ZINC000653843540    0.1300
73     H73    -4.8614   -2.6775   14.4442 H        1 ZINC000653843540    0.1400
74     H74    -4.9427   -2.2681   12.0196 H        1 ZINC000653843540    0.1500
75     H75    -1.2900   -2.5883    4.5441 H        1 ZINC000653843540    0.1400
76     H76    -0.1243   -2.0069    2.4608 H        1 ZINC000653843540    0.1400
@<TRIPOS>BOND
1     1     2     1
2     1     45    1
3     1     46    1
4     1     47    1
5     2     3     1
6     2     4     1
7     2     48    1
8     3     49    1
9     3     50    1
10    3     51    1
11    4     5     1
12    5     44    ar
13    5     6     ar
14    6     7     ar
15    6     52    1
16    7     8     ar
17    7     53    1
18    8     9     1
19    8     43    ar
20    9     10    2
21    9     11    am
22    11    12    1
23    11    54    1
24    12    39    1
25    12    13    2
26    13    14    1
27    13    24    1
28    14    23    ar
29    14    15    ar
30    15    16    ar
31    15    55    1
32    16    17    ar
33    16    56    1
34    17    18    1
35    17    22    ar
36    18    19    1
37    19    20    1
38    19    21    1
39    19    57    1
40    20    58    1
41    20    59    1
42    20    60    1
43    21    61    1
44    21    62    1
45    21    63    1
46    22    23    ar
47    22    64    1
48    23    65    1
49    24    25    1
50    24    38    1
51    25    37    ar
52    25    26    ar
53    26    27    ar
54    26    66    1
55    27    28    ar
56    27    67    1
57    28    29    1
58    28    36    ar
59    29    30    1
60    30    35    ar
61    30    31    ar
62    31    32    ar
63    31    68    1
64    32    33    ar
65    32    69    1
66    33    34    ar
67    33    70    1
68    34    35    ar
69    34    71    1
70    35    72    1
71    36    37    ar
72    36    73    1
73    37    74    1
74    38    39    2
75    39    40    1
76    40    41    ar
77    40    42    ar
78    43    44    ar
79    43    75    1
80    44    76    1
@<TRIPOS>SUBSTRUCTURE
1   ZINC000653843540 1     RESIDUE    1   A     ZIN   1
