@<TRIPOS>MOLECULE
ZINC000036056301
39    42    1     0     0
SMALL
USER_CHARGES
@<TRIPOS>ATOM
1      C1      0.3153    1.0283   -0.5117 C.3      1 ZINC000036056301   -0.1600
2      C2      0.1232   -0.4547   -0.1881 C.3      1 ZINC000036056301    0.1600
3      C3      0.7442   -1.3037   -1.2992 C.3      1 ZINC000036056301   -0.1600
4      N4      0.7760   -0.7650    1.0862 N.pl3    1 ZINC000036056301   -0.3700
5      N5      2.1384   -0.5994    1.3572 N.2      1 ZINC000036056301   -0.2100
6      C6      2.3960   -0.9698    2.5912 C.2      1 ZINC000036056301    0.1800
7      C7      3.7153   -0.9451    3.2552 C.2      1 ZINC000036056301    0.1300
8      C8      4.6316    0.0492    3.1388 C.2      1 ZINC000036056301   -0.1300
9      C9      5.7818   -0.3327    3.9561 C.ar     1 ZINC000036056301   -0.0900
10     C10     7.0128    0.2693    4.2335 C.ar     1 ZINC000036056301   -0.0900
11     C11     7.9094   -0.3653    5.0697 C.ar     1 ZINC000036056301    0.0800
12     O12     9.1082    0.2155    5.3430 O.3      1 ZINC000036056301   -0.5000
13     C13     7.5911   -1.5974    5.6347 C.ar     1 ZINC000036056301   -0.1100
14     C14     6.3812   -2.2003    5.3687 C.ar     1 ZINC000036056301   -0.1100
15     C15     5.4638   -1.5788    4.5290 C.ar     1 ZINC000036056301    0.1000
16     N16     4.2015   -1.9238    4.0912 N.pl3    1 ZINC000036056301   -0.5900
17     C17     1.1334   -1.4108    3.1865 C.ar     1 ZINC000036056301   -0.3300
18     C18     0.7483   -1.9098    4.4410 C.ar     1 ZINC000036056301    0.5200
19     N19     1.6756   -2.0772    5.4515 N.pl3    1 ZINC000036056301   -0.8300
20     N20    -0.5312   -2.2168    4.6326 N.ar     1 ZINC000036056301   -0.6000
21     C21    -1.4221   -2.0584    3.6702 C.ar     1 ZINC000036056301    0.3900
22     N22    -1.1075   -1.5948    2.4805 N.ar     1 ZINC000036056301   -0.5700
23     C23     0.1487   -1.2543    2.1935 C.ar     1 ZINC000036056301    0.3800
24     H24     1.3801    1.2491   -0.5857 H        1 ZINC000036056301    0.0700
25     H25    -0.1704    1.2592   -1.4598 H        1 ZINC000036056301    0.0800
26     H26    -0.1271    1.6332    0.2799 H        1 ZINC000036056301    0.0600
27     H27    -0.9416   -0.6755   -0.1141 H        1 ZINC000036056301    0.1100
28     H28     1.8090   -1.0829   -1.3732 H        1 ZINC000036056301    0.0700
29     H29     0.6074   -2.3602   -1.0686 H        1 ZINC000036056301    0.0600
30     H30     0.2585   -1.0729   -2.2473 H        1 ZINC000036056301    0.0800
31     H31     4.5304    0.9511    2.5533 H        1 ZINC000036056301    0.1600
32     H32     7.2610    1.2250    3.7959 H        1 ZINC000036056301    0.1300
33     H33     9.0973    0.7945    6.1174 H        1 ZINC000036056301    0.3900
34     H34     8.2996   -2.0854    6.2875 H        1 ZINC000036056301    0.1400
35     H35     6.1454   -3.1563    5.8124 H        1 ZINC000036056301    0.1300
36     H36     3.7283   -2.7345    4.3356 H        1 ZINC000036056301    0.4200
37     H37     2.5737   -1.7252    5.3489 H        1 ZINC000036056301    0.4100
38     H38     1.4285   -2.5466    6.2636 H        1 ZINC000036056301    0.4100
39     H39    -2.4508   -2.3207    3.8685 H        1 ZINC000036056301    0.2100
@<TRIPOS>BOND
1     1     2     1
2     1     24    1
3     1     25    1
4     1     26    1
5     2     3     1
6     2     4     1
7     2     27    1
8     3     28    1
9     3     29    1
10    3     30    1
11    4     23    1
12    4     5     1
13    5     6     2
14    6     7     1
15    6     17    1
16    7     16    1
17    7     8     2
18    8     9     1
19    8     31    1
20    9     15    ar
21    9     10    ar
22    10    11    ar
23    10    32    1
24    11    12    1
25    11    13    ar
26    12    33    1
27    13    14    ar
28    13    34    1
29    14    15    ar
30    14    35    1
31    15    16    1
32    16    36    1
33    17    23    ar
34    17    18    ar
35    18    19    1
36    18    20    ar
37    19    37    1
38    19    38    1
39    20    21    ar
40    21    22    ar
41    21    39    1
42    22    23    ar
@<TRIPOS>SUBSTRUCTURE
1   ZINC000036056301 1     RESIDUE    1   A     ZIN   1
