@<TRIPOS>MOLECULE
ZINC000003807804
  42   45    0    0    0
SMALL
USER_CHARGES
NO_NAME
@<TRIPOS>ATOM
    1 Cl1      -0.2151     0.4658     0.4928 Cl     1 <0>      -0.0500
    2 C2        0.0075     2.0678    -0.1377 C.ar   1 <0>      -0.0200
    3 C3       -1.0916     2.8542    -0.4327 C.ar   1 <0>      -0.1100
    4 C4       -0.9137     4.1298    -0.9348 C.ar   1 <0>      -0.1000
    5 C5        0.3621     4.6196    -1.1420 C.ar   1 <0>      -0.1100
    6 C6        1.4611     3.8341    -0.8473 C.ar   1 <0>      -0.1000
    7 C7        1.2846     2.5608    -0.3399 C.ar   1 <0>      -0.0900
    8 C8        2.4825     1.7050    -0.0182 C.3    1 <0>       0.3000
    9 C9        2.3842     1.2176     1.4044 C.ar   1 <0>      -0.0900
   10 C10       2.2867     2.1266     2.4412 C.ar   1 <0>      -0.1000
   11 C11       2.1965     1.6795     3.7462 C.ar   1 <0>      -0.1200
   12 C12       2.2034     0.3235     4.0143 C.ar   1 <0>      -0.1100
   13 C13       2.3000    -0.5856     2.9773 C.ar   1 <0>      -0.1200
   14 C14       2.3858    -0.1386     1.6721 C.ar   1 <0>      -0.0900
   15 C15       2.5210     0.5232    -0.9526 C.ar   1 <0>      -0.1000
   16 C16       1.5198     0.3501    -1.8898 C.ar   1 <0>      -0.0900
   17 C17       1.5551    -0.7339    -2.7468 C.ar   1 <0>      -0.1200
   18 C18       2.5920    -1.6446    -2.6670 C.ar   1 <0>      -0.1000
   19 C19       3.5937    -1.4711    -1.7303 C.ar   1 <0>      -0.1200
   20 C20       3.5606    -0.3847    -0.8762 C.ar   1 <0>      -0.1000
   21 N21       3.7052     2.4956    -0.1802 N.pl3  1 <0>      -0.4500
   22 C22       4.7195     2.2505    -1.0660 C.2    1 <0>      -0.0500
   23 C23       5.6403     3.2157    -0.8807 C.2    1 <0>      -0.0300
   24 N24       5.2001     4.0279     0.0916 N.2    1 <0>      -0.4900
   25 C25       4.0392     3.6057     0.5125 C.2    1 <0>       0.1800
   26 H26      -2.0885     2.4715    -0.2712 H      1 <0>       0.1400
   27 H27      -1.7718     4.7437    -1.1656 H      1 <0>       0.1400
   28 H28       0.5006     5.6161    -1.5347 H      1 <0>       0.1300
   29 H29       2.4577     4.2173    -1.0094 H      1 <0>       0.1400
   30 H30       2.2813     3.1861     2.2318 H      1 <0>       0.1200
   31 H31       2.1211     2.3898     4.5563 H      1 <0>       0.1300
   32 H32       2.1336    -0.0258     5.0338 H      1 <0>       0.1200
   33 H33       2.3057    -1.6451     3.1868 H      1 <0>       0.1200
   34 H34       2.4613    -0.8488     0.8619 H      1 <0>       0.1300
   35 H35       0.7097     1.0617    -1.9522 H      1 <0>       0.1300
   36 H36       0.7725    -0.8694    -3.4786 H      1 <0>       0.1300
   37 H37       2.6192    -2.4919    -3.3361 H      1 <0>       0.1300
   38 H38       4.4036    -2.1828    -1.6677 H      1 <0>       0.1300
   39 H39       4.3433    -0.2491    -0.1444 H      1 <0>       0.1300
   40 H40       4.7716     1.4389    -1.7766 H      1 <0>       0.1700
   41 H41       6.5701     3.3178    -1.4205 H      1 <0>       0.1700
   42 H42       3.4470     4.0641     1.2906 H      1 <0>       0.2000
@<TRIPOS>BOND
   1    1    2 1
   2    2    7 ar
   3    2    3 ar
   4    3    4 ar
   5    3   26 1
   6    4    5 ar
   7    4   27 1
   8    5    6 ar
   9    5   28 1
  10    6    7 ar
  11    6   29 1
  12    7    8 1
  13    8    9 1
  14    8   15 1
  15    8   21 1
  16    9   14 ar
  17    9   10 ar
  18   10   11 ar
  19   10   30 1
  20   11   12 ar
  21   11   31 1
  22   12   13 ar
  23   12   32 1
  24   13   14 ar
  25   13   33 1
  26   14   34 1
  27   15   20 ar
  28   15   16 ar
  29   16   17 ar
  30   16   35 1
  31   17   18 ar
  32   17   36 1
  33   18   19 ar
  34   18   37 1
  35   19   20 ar
  36   19   38 1
  37   20   39 1
  38   21   25 1
  39   21   22 1
  40   22   23 2
  41   22   40 1
  42   23   24 1
  43   23   41 1
  44   24   25 2
  45   25   42 1
