@<TRIPOS>MOLECULE
ZINC000014679203
51    52    1     0     0
SMALL
USER_CHARGES
@<TRIPOS>ATOM
1      C1     -0.0173    1.4248    0.0099 C.3      1 ZINC000014679203    0.0300
2      O2      0.0021   -0.0041    0.0020 O.3      1 ZINC000014679203   -0.3300
3      C3     -1.2002   -0.6374    0.0101 C.ar     1 ZINC000014679203    0.1100
4      C4     -1.8051   -0.9621    1.2143 C.ar     1 ZINC000014679203   -0.1300
5      C5     -1.1308   -0.6128    2.5160 C.3      1 ZINC000014679203   -0.1100
6      C6     -3.0318   -1.6084    1.2192 C.ar     1 ZINC000014679203    0.1100
7      O7     -3.6276   -1.9276    2.3982 O.3      1 ZINC000014679203   -0.4900
8      C8     -3.6509   -1.9285    0.0194 C.ar     1 ZINC000014679203   -0.1400
9      C9     -3.0458   -1.6037   -1.1798 C.ar     1 ZINC000014679203   -0.0600
10     C10    -3.7203   -1.9526   -2.4815 C.3      1 ZINC000014679203   -0.0700
11     C11    -3.1829   -3.2912   -2.9917 C.3      1 ZINC000014679203   -0.0800
12     C12    -3.8574   -3.6400   -4.2934 C.ar     1 ZINC000014679203   -0.0900
13     C13    -4.9731   -4.4564   -4.2967 C.ar     1 ZINC000014679203   -0.1100
14     C14    -5.5940   -4.7788   -5.4892 C.ar     1 ZINC000014679203   -0.1100
15     C15    -5.1022   -4.2858   -6.6834 C.ar     1 ZINC000014679203   -0.1400
16     C16    -3.9846   -3.4667   -6.6871 C.ar     1 ZINC000014679203    0.0800
17     O17    -3.4998   -2.9806   -7.8610 O.3      1 ZINC000014679203   -0.4900
18     C18    -3.3628   -3.1380   -5.4864 C.ar     1 ZINC000014679203    0.0800
19     O19    -2.2656   -2.3344   -5.4848 O.3      1 ZINC000014679203   -0.4800
20     C20    -1.8262   -0.9547   -1.1874 C.ar     1 ZINC000014679203   -0.0900
21     C21    -1.1693   -0.6016   -2.4969 C.3      1 ZINC000014679203   -0.0600
22     C22    -1.6179    0.7704   -2.9300 C.2      1 ZINC000014679203   -0.1600
23     C23    -0.7301    1.6974   -3.1920 C.2      1 ZINC000014679203   -0.1200
24     C24     0.7397    1.3918   -3.0603 C.3      1 ZINC000014679203   -0.1300
25     C25    -1.1786    3.0693   -3.6251 C.3      1 ZINC000014679203   -0.1200
26     H26     1.0053    1.8021    0.0021 H        1 ZINC000014679203    0.0900
27     H27    -0.5445    1.7859   -0.8732 H        1 ZINC000014679203    0.0600
28     H28    -0.5275    1.7763    0.9067 H        1 ZINC000014679203    0.0400
29     H29    -1.4475    0.3805    2.8341 H        1 ZINC000014679203    0.0700
30     H30    -1.4077   -1.3433    3.2761 H        1 ZINC000014679203    0.0700
31     H31    -0.0495   -0.6229    2.3792 H        1 ZINC000014679203    0.0700
32     H32    -4.2117   -1.2384    2.7430 H        1 ZINC000014679203    0.3900
33     H33    -4.6062   -2.4322    0.0228 H        1 ZINC000014679203    0.1300
34     H34    -4.7962   -2.0293   -2.3241 H        1 ZINC000014679203    0.0800
35     H35    -3.5152   -1.1747   -3.2169 H        1 ZINC000014679203    0.0800
36     H36    -2.1070   -3.2145   -3.1491 H        1 ZINC000014679203    0.0800
37     H37    -3.3880   -4.0691   -2.2563 H        1 ZINC000014679203    0.0800
38     H38    -5.3603   -4.8434   -3.3658 H        1 ZINC000014679203    0.1300
39     H39    -6.4649   -5.4174   -5.4877 H        1 ZINC000014679203    0.1300
40     H40    -5.5889   -4.5395   -7.6136 H        1 ZINC000014679203    0.1300
41     H41    -3.8796   -2.1303   -8.1214 H        1 ZINC000014679203    0.3900
42     H42    -2.4685   -1.3919   -5.4094 H        1 ZINC000014679203    0.3800
43     H43    -0.0864   -0.6077   -2.3734 H        1 ZINC000014679203    0.0900
44     H44    -1.4528   -1.3324   -3.2543 H        1 ZINC000014679203    0.0900
45     H45    -2.6712    0.9894   -3.0244 H        1 ZINC000014679203    0.1100
46     H46     1.0032    0.5768   -3.7344 H        1 ZINC000014679203    0.0700
47     H47     1.3196    2.2781   -3.3177 H        1 ZINC000014679203    0.0600
48     H48     0.9594    1.0995   -2.0335 H        1 ZINC000014679203    0.0800
49     H49    -1.3120    3.7019   -2.7475 H        1 ZINC000014679203    0.0700
50     H50    -0.4247    3.5086   -4.2784 H        1 ZINC000014679203    0.0600
51     H51    -2.1235    2.9898   -4.1627 H        1 ZINC000014679203    0.0600
@<TRIPOS>BOND
1     1     2     1
2     1     26    1
3     1     27    1
4     1     28    1
5     2     3     1
6     3     20    ar
7     3     4     ar
8     4     5     1
9     4     6     ar
10    5     29    1
11    5     30    1
12    5     31    1
13    6     7     1
14    6     8     ar
15    7     32    1
16    8     9     ar
17    8     33    1
18    9     10    1
19    9     20    ar
20    10    11    1
21    10    34    1
22    10    35    1
23    11    12    1
24    11    36    1
25    11    37    1
26    12    18    ar
27    12    13    ar
28    13    14    ar
29    13    38    1
30    14    15    ar
31    14    39    1
32    15    16    ar
33    15    40    1
34    16    17    1
35    16    18    ar
36    17    41    1
37    18    19    1
38    19    42    1
39    20    21    1
40    21    22    1
41    21    43    1
42    21    44    1
43    22    23    2
44    22    45    1
45    23    24    1
46    23    25    1
47    24    46    1
48    24    47    1
49    24    48    1
50    25    49    1
51    25    50    1
52    25    51    1
@<TRIPOS>SUBSTRUCTURE
1   ZINC000014679203 1     RESIDUE    1   A     ZIN   1
