@<TRIPOS>MOLECULE
ZINC000000585151
56    60    1     0     0
SMALL
USER_CHARGES
@<TRIPOS>ATOM
1      C1     -0.0178    1.4648    0.0101 C.3      1 ZINC000000585151   -0.0500
2      N2      0.0021   -0.0041    0.0020 N.4      1 ZINC000000585151   -0.3900
3      H3      0.4743   -0.3295   -0.8281 H        1 ZINC000000585151    0.4300
4      C4      0.7126   -0.4907    1.1921 C.3      1 ZINC000000585151   -0.0500
5      C5     -1.3761   -0.5125    0.0124 C.3      1 ZINC000000585151   -0.0100
6      C6     -1.3584   -2.0365   -0.1216 C.3      1 ZINC000000585151   -0.1700
7      C7     -2.7938   -2.5661   -0.1108 C.3      1 ZINC000000585151    0.1200
8      N8     -2.7769   -4.0254   -0.2392 N.pl3    1 ZINC000000585151   -0.4800
9      C9     -2.9035   -4.7044   -1.4120 C.2      1 ZINC000000585151    0.0900
10     C10    -2.8450   -6.0461   -1.1745 C.2      1 ZINC000000585151   -0.1200
11     C11    -2.9420   -7.1226   -2.1745 C.2      1 ZINC000000585151   -0.0400
12     C12    -1.9598   -7.5172   -3.0754 C.2      1 ZINC000000585151   -0.0200
13     C13    -0.6116   -6.9436   -3.2227 C.2      1 ZINC000000585151   -0.1400
14     C14     0.4527   -7.1378   -2.3923 C.2      1 ZINC000000585151    0.1000
15     N15     1.5281   -6.4438   -2.8555 N.pl3    1 ZINC000000585151   -0.5900
16     C16     1.1998   -5.7682   -4.0125 C.ar     1 ZINC000000585151    0.0900
17     C17     1.9174   -4.9343   -4.8633 C.ar     1 ZINC000000585151   -0.1300
18     C18     1.3048   -4.3910   -5.9718 C.ar     1 ZINC000000585151   -0.1000
19     C19    -0.0258   -4.6668   -6.2505 C.ar     1 ZINC000000585151   -0.1400
20     C20    -0.7542   -5.4901   -5.4197 C.ar     1 ZINC000000585151   -0.0700
21     C21    -0.1459   -6.0521   -4.2996 C.ar     1 ZINC000000585151   -0.0800
22     C22    -2.5421   -8.6290   -3.8552 C.2      1 ZINC000000585151    0.5500
23     O23    -1.9835   -9.2396   -4.7446 O.2      1 ZINC000000585151   -0.4400
24     N24    -3.7924   -8.8522   -3.4165 N.am     1 ZINC000000585151   -0.6900
25     C25    -4.1007   -8.0062   -2.4191 C.2      1 ZINC000000585151    0.5600
26     O26    -5.1590   -7.9682   -1.8237 O.2      1 ZINC000000585151   -0.4500
27     C27    -2.6658   -6.2072    0.2793 C.ar     1 ZINC000000585151   -0.0800
28     C28    -2.5396   -7.3097    1.1211 C.ar     1 ZINC000000585151   -0.0700
29     C29    -2.3802   -7.1185    2.4764 C.ar     1 ZINC000000585151   -0.1300
30     C30    -2.3455   -5.8357    3.0031 C.ar     1 ZINC000000585151   -0.0900
31     C31    -2.4691   -4.7357    2.1820 C.ar     1 ZINC000000585151   -0.1300
32     C32    -2.6245   -4.9073    0.8106 C.ar     1 ZINC000000585151    0.0900
33     H33     1.0047    1.8421    0.0024 H        1 ZINC000000585151    0.1300
34     H34    -0.5450    1.8259   -0.8730 H        1 ZINC000000585151    0.1200
35     H35    -0.5280    1.8163    0.9069 H        1 ZINC000000585151    0.1200
36     H36     0.7274   -1.5806    1.1861 H        1 ZINC000000585151    0.1200
37     H37     1.7352   -0.1134    1.1844 H        1 ZINC000000585151    0.1300
38     H38     0.2024   -0.1392    2.0889 H        1 ZINC000000585151    0.1200
39     H39    -1.8584   -0.2358    0.9500 H        1 ZINC000000585151    0.1300
40     H40    -1.9290   -0.0808   -0.8218 H        1 ZINC000000585151    0.1400
41     H41    -0.8762   -2.3132   -1.0592 H        1 ZINC000000585151    0.1000
42     H42    -0.8055   -2.4683    0.7126 H        1 ZINC000000585151    0.1000
43     H43    -3.2761   -2.2894    0.8268 H        1 ZINC000000585151    0.1000
44     H44    -3.3467   -2.1344   -0.9450 H        1 ZINC000000585151    0.1000
45     H45    -3.0310   -4.2498   -2.3833 H        1 ZINC000000585151    0.1800
46     H46     0.4435   -7.7492   -1.5020 H        1 ZINC000000585151    0.1800
47     H47     2.4008   -6.4266   -2.4322 H        1 ZINC000000585151    0.4200
48     H48     2.9537   -4.7124   -4.6552 H        1 ZINC000000585151    0.1200
49     H49     1.8660   -3.7439   -6.6297 H        1 ZINC000000585151    0.1300
50     H50    -0.4933   -4.2338   -7.1225 H        1 ZINC000000585151    0.1300
51     H51    -1.7902   -5.7027   -5.6385 H        1 ZINC000000585151    0.1200
52     H52    -4.3880   -9.5325   -3.7679 H        1 ZINC000000585151    0.4300
53     H53    -2.5670   -8.3096    0.7137 H        1 ZINC000000585151    0.1200
54     H54    -2.2821   -7.9714    3.1316 H        1 ZINC000000585151    0.1300
55     H55    -2.2207   -5.6977    4.0670 H        1 ZINC000000585151    0.1300
56     H56    -2.4407   -3.7414    2.6026 H        1 ZINC000000585151    0.1200
@<TRIPOS>BOND
1     1     2     1
2     1     33    1
3     1     34    1
4     1     35    1
5     2     3     1
6     2     4     1
7     2     5     1
8     4     36    1
9     4     37    1
10    4     38    1
11    5     6     1
12    5     39    1
13    5     40    1
14    6     7     1
15    6     41    1
16    6     42    1
17    7     8     1
18    7     43    1
19    7     44    1
20    8     32    1
21    8     9     1
22    9     10    2
23    9     45    1
24    10    11    1
25    10    27    1
26    11    25    1
27    11    12    2
28    12    13    1
29    12    22    1
30    13    21    1
31    13    14    2
32    14    15    1
33    14    46    1
34    15    16    1
35    15    47    1
36    16    21    ar
37    16    17    ar
38    17    18    ar
39    17    48    1
40    18    19    ar
41    18    49    1
42    19    20    ar
43    19    50    1
44    20    21    ar
45    20    51    1
46    22    23    2
47    22    24    am
48    24    25    am
49    24    52    1
50    25    26    2
51    27    32    ar
52    27    28    ar
53    28    29    ar
54    28    53    1
55    29    30    ar
56    29    54    1
57    30    31    ar
58    30    55    1
59    31    32    ar
60    31    56    1
@<TRIPOS>SUBSTRUCTURE
1   ZINC000000585151 1     RESIDUE    1   A     ZIN   1
