@<TRIPOS>MOLECULE
ZINC000205606557
45    48    1     0     0
SMALL
USER_CHARGES
@<TRIPOS>ATOM
1      C1     -3.2816    7.1510    2.3932 C.3      1 ZINC000205606557   -0.1600
2      C2     -3.6034    6.4344    1.0802 C.3      1 ZINC000205606557    0.2100
3      H3     -4.5890    5.9742    1.1496 H        1 ZINC000205606557    0.1400
4      N4     -2.5975    5.3991    0.8297 N.pl3    1 ZINC000205606557   -0.6900
5      C5     -2.7400    4.1476    1.3941 C.ar     1 ZINC000205606557    0.5100
6      N6     -3.7856    3.8685    2.1673 N.ar     1 ZINC000205606557   -0.6100
7      C7     -3.9307    2.6767    2.7108 C.ar     1 ZINC000205606557    0.4100
8      N8     -3.0604    1.7055    2.5231 N.ar     1 ZINC000205606557   -0.6100
9      C9     -1.9818    1.8869    1.7659 C.ar     1 ZINC000205606557    0.5200
10     N10    -1.0763    0.8626    1.5758 N.pl3    1 ZINC000205606557   -0.8200
11     C11    -1.7776    3.1446    1.1665 C.ar     1 ZINC000205606557   -0.2700
12     C12    -0.6299    3.3947    0.3474 C.1      1 ZINC000205606557    0.2600
13     N13     0.2805    3.5931   -0.3024 N.1      1 ZINC000205606557   -0.4200
14     C14    -3.5922    7.4298   -0.0512 C.2      1 ZINC000205606557    0.3700
15     N15    -2.4630    7.7312   -0.6017 N.2      1 ZINC000205606557   -0.3000
16     N16    -2.3883    8.6459   -1.6605 N.pl3    1 ZINC000205606557   -0.2500
17     C17    -1.3485    9.1161   -2.3928 C.2      1 ZINC000205606557    0.0800
18     C18    -1.8053   10.0010   -3.3084 C.2      1 ZINC000205606557   -0.1400
19     C19    -3.2053   10.0981   -3.1502 C.2      1 ZINC000205606557    0.0000
20     C20    -4.0993   10.9195   -3.9095 C.1      1 ZINC000205606557    0.2800
21     N21    -4.8086   11.5712   -4.5118 N.1      1 ZINC000205606557   -0.4000
22     C22    -3.5446    9.2364   -2.1084 C.2      1 ZINC000205606557   -0.0600
23     C23    -4.8087    8.8811   -1.4634 C.2      1 ZINC000205606557    0.5800
24     O24    -5.8583    9.3801   -1.8274 O.2      1 ZINC000205606557   -0.4600
25     N25    -4.7804    7.9845   -0.4524 N.am     1 ZINC000205606557   -0.5100
26     C26    -5.9701    7.6200    0.1881 C.ar     1 ZINC000205606557    0.0900
27     C27    -6.6681    6.4938   -0.2287 C.ar     1 ZINC000205606557   -0.1000
28     C28    -7.8391    6.1339    0.4089 C.ar     1 ZINC000205606557   -0.1000
29     C29    -8.3226    6.8995    1.4540 C.ar     1 ZINC000205606557   -0.0900
30     C30    -7.6331    8.0246    1.8677 C.ar     1 ZINC000205606557   -0.1100
31     C31    -6.4585    8.3869    1.2381 C.ar     1 ZINC000205606557   -0.0900
32     H32    -4.0066    7.9478    2.5594 H        1 ZINC000205606557    0.0800
33     H33    -3.3292    6.4388    3.2170 H        1 ZINC000205606557    0.0900
34     H34    -2.2797    7.5769    2.3386 H        1 ZINC000205606557    0.0700
35     H35    -1.8315    5.5932    0.2672 H        1 ZINC000205606557    0.4200
36     H36    -4.7937    2.4896    3.3325 H        1 ZINC000205606557    0.2100
37     H37    -1.2235    0.0009    1.9961 H        1 ZINC000205606557    0.4200
38     H38    -0.2948    1.0033    1.0186 H        1 ZINC000205606557    0.4100
39     H39    -0.3155    8.8281   -2.2653 H        1 ZINC000205606557    0.1900
40     H40    -1.2071   10.5364   -4.0308 H        1 ZINC000205606557    0.1800
41     H41    -6.2933    5.8979   -1.0478 H        1 ZINC000205606557    0.1300
42     H42    -8.3801    5.2560    0.0880 H        1 ZINC000205606557    0.1400
43     H43    -9.2409    6.6184    1.9480 H        1 ZINC000205606557    0.1300
44     H44    -8.0134    8.6205    2.6842 H        1 ZINC000205606557    0.1400
45     H45    -5.9201    9.2652    1.5621 H        1 ZINC000205606557    0.1300
@<TRIPOS>BOND
1     1     2     1
2     1     32    1
3     1     33    1
4     1     34    1
5     2     3     1
6     2     4     1
7     2     14    1
8     4     5     1
9     4     35    1
10    5     11    ar
11    5     6     ar
12    6     7     ar
13    7     8     ar
14    7     36    1
15    8     9     ar
16    9     10    1
17    9     11    ar
18    10    37    1
19    10    38    1
20    11    12    1
21    12    13    3
22    14    25    1
23    14    15    2
24    15    16    1
25    16    22    1
26    16    17    1
27    17    18    2
28    17    39    1
29    18    19    1
30    18    40    1
31    19    20    1
32    19    22    2
33    20    21    3
34    22    23    1
35    23    24    2
36    23    25    am
37    25    26    1
38    26    31    ar
39    26    27    ar
40    27    28    ar
41    27    41    1
42    28    29    ar
43    28    42    1
44    29    30    ar
45    29    43    1
46    30    31    ar
47    30    44    1
48    31    45    1
@<TRIPOS>SUBSTRUCTURE
1   ZINC000205606557 1     RESIDUE    1   A     ZIN   1
