@<TRIPOS>MOLECULE
ZINC000001529781
42    43    1     0     0
SMALL
USER_CHARGES
@<TRIPOS>ATOM
1      O1      0.0021   -0.0041    0.0020 O.co2    1 ZINC000001529781   -0.6800
2      C2     -0.0145    1.2150    0.0087 C.2      1 ZINC000001529781    0.4800
3      O3      1.0330    1.8389    0.0021 O.co2    1 ZINC000001529781   -0.6900
4      C4     -1.3296    1.9507    0.0190 C.3      1 ZINC000001529781    0.0700
5      O5     -2.4031    1.0074    0.0189 O.3      1 ZINC000001529781   -0.5400
6      C6     -1.4285    2.8359   -1.2250 C.3      1 ZINC000001529781   -0.1600
7      C7     -2.7638    3.5828   -1.2146 C.3      1 ZINC000001529781    0.0800
8      H8     -3.5826    2.8633   -1.2147 H        1 ZINC000001529781    0.0700
9      O9     -2.8562    4.4096   -2.3765 O.3      1 ZINC000001529781   -0.5800
10     C10    -2.8509    4.4545    0.0398 C.3      1 ZINC000001529781    0.1000
11     H11    -2.0321    5.1740    0.0398 H        1 ZINC000001529781    0.0700
12     O12    -4.0980    5.1521    0.0495 O.3      1 ZINC000001529781   -0.5500
13     C13    -2.7520    3.5692    1.2838 C.3      1 ZINC000001529781    0.1100
14     H14    -2.8140    4.1902    2.1774 H        1 ZINC000001529781    0.0900
15     O15    -3.8254    2.6260    1.2837 O.3      1 ZINC000001529781   -0.3000
16     C16    -4.9700    3.0005    1.8923 C.2      1 ZINC000001529781    0.4900
17     O17    -5.0531    4.0987    2.4088 O.2      1 ZINC000001529781   -0.5100
18     C18    -6.0758    2.1140    1.9299 C.2      1 ZINC000001529781   -0.1700
19     C19    -7.2217    2.4889    2.5392 C.2      1 ZINC000001529781   -0.0200
20     C20    -8.3679    1.5700    2.5781 C.ar     1 ZINC000001529781   -0.0600
21     C21    -8.2726    0.3040    1.9896 C.ar     1 ZINC000001529781   -0.0900
22     C22    -9.3488   -0.5555    2.0275 C.ar     1 ZINC000001529781   -0.1300
23     C23   -10.5290   -0.1690    2.6480 C.ar     1 ZINC000001529781    0.0900
24     O24   -11.5866   -1.0205    2.6817 O.3      1 ZINC000001529781   -0.4900
25     C25   -10.6318    1.0911    3.2373 C.ar     1 ZINC000001529781    0.0800
26     O26   -11.7898    1.4652    3.8444 O.3      1 ZINC000001529781   -0.4900
27     C27    -9.5566    1.9565    3.2091 C.ar     1 ZINC000001529781   -0.1100
28     C28    -1.4167    2.8223    1.2734 C.3      1 ZINC000001529781   -0.0900
29     H29    -2.4106    0.4202   -0.7493 H        1 ZINC000001529781    0.3600
30     H30    -0.6098    3.5554   -1.2250 H        1 ZINC000001529781    0.0800
31     H31    -1.3665    2.2150   -2.1187 H        1 ZINC000001529781    0.0600
32     H32    -2.8081    3.9227   -3.2106 H        1 ZINC000001529781    0.3800
33     H33    -4.2292    5.7337   -0.7118 H        1 ZINC000001529781    0.3800
34     H34    -6.0020    1.1389    1.4713 H        1 ZINC000001529781    0.1400
35     H35    -7.2955    3.4639    2.9978 H        1 ZINC000001529781    0.1400
36     H36    -7.3560    0.0008    1.5056 H        1 ZINC000001529781    0.1400
37     H37    -9.2741   -1.5324    1.5730 H        1 ZINC000001529781    0.1400
38     H38   -11.6002   -1.6002    3.4556 H        1 ZINC000001529781    0.3900
39     H39   -11.8319    1.2401    4.7839 H        1 ZINC000001529781    0.3900
40     H40    -9.6349    2.9323    3.6654 H        1 ZINC000001529781    0.1400
41     H41    -1.3462    2.1917    2.1596 H        1 ZINC000001529781    0.0800
42     H42    -0.5979    3.5418    1.2734 H        1 ZINC000001529781    0.1000
@<TRIPOS>BOND
1     1     2     ar
2     2     3     ar
3     2     4     1
4     4     28    1
5     4     5     1
6     4     6     1
7     5     29    1
8     6     7     1
9     6     30    1
10    6     31    1
11    7     8     1
12    7     9     1
13    7     10    1
14    9     32    1
15    10    11    1
16    10    12    1
17    10    13    1
18    12    33    1
19    13    14    1
20    13    15    1
21    13    28    1
22    15    16    1
23    16    17    2
24    16    18    1
25    18    19    2
26    18    34    1
27    19    20    1
28    19    35    1
29    20    27    ar
30    20    21    ar
31    21    22    ar
32    21    36    1
33    22    23    ar
34    22    37    1
35    23    24    1
36    23    25    ar
37    24    38    1
38    25    26    1
39    25    27    ar
40    26    39    1
41    27    40    1
42    28    41    1
43    28    42    1
@<TRIPOS>SUBSTRUCTURE
1   ZINC000001529781 1     RESIDUE    1   A     ZIN   1
