@<TRIPOS>MOLECULE
ZINC000002572535
  51   54    0    0    0
SMALL
USER_CHARGES
NO_NAME
@<TRIPOS>ATOM
    1 C1       -0.0173     1.4248     0.0099 C.3    1 <0>       0.0300
    2 O2        0.0021    -0.0041     0.0020 O.3    1 <0>      -0.3100
    3 C3        0.6062    -0.6075    -1.0564 C.ar   1 <0>       0.1000
    4 C4        1.1727     0.1587    -2.0618 C.ar   1 <0>      -0.1700
    5 C5        1.7870    -0.4565    -3.1372 C.ar   1 <0>      -0.0900
    6 C6        1.8372    -1.8356    -3.2121 C.ar   1 <0>      -0.0900
    7 C7        2.5075    -2.5009    -4.3865 C.3    1 <0>       0.1500
    8 H8        2.0928    -3.4964    -4.5444 H      1 <0>       0.0900
    9 O9        2.3481    -1.6900    -5.5863 O.3    1 <0>      -0.3700
   10 C10       3.6652    -1.4486    -6.1727 C.3    1 <0>       0.0700
   11 C11       4.4600    -2.6270    -5.6789 C.3    1 <0>      -0.1700
   12 H12       4.1060    -3.5425    -6.1528 H      1 <0>       0.1000
   13 C13       3.9875    -2.5825    -4.1638 C.3    1 <0>      -0.1700
   14 H14       4.3411    -1.6677    -3.6883 H      1 <0>       0.1000
   15 C15       4.7826    -3.7617    -3.6720 C.3    1 <0>       0.0700
   16 O16       6.0996    -3.5191    -4.2582 O.3    1 <0>      -0.3700
   17 C17       5.9392    -2.7044    -5.4500 C.3    1 <0>       0.1500
   18 H18       6.3532    -1.7093    -5.2870 H      1 <0>       0.0900
   19 C19       6.6092    -3.3627    -6.6284 C.ar   1 <0>      -0.0600
   20 C20       6.5411    -4.7345    -6.7824 C.ar   1 <0>      -0.1200
   21 C21       7.1546    -5.3435    -7.8618 C.ar   1 <0>      -0.1100
   22 C22       7.8390    -4.5783    -8.7919 C.ar   1 <0>       0.0800
   23 O23       8.4425    -5.1755    -9.8542 O.3    1 <0>      -0.4900
   24 C24       7.9071    -3.1966    -8.6370 C.ar   1 <0>       0.1000
   25 O25       8.5774    -2.4411    -9.5477 O.3    1 <0>      -0.3100
   26 C26       8.6058    -1.0299    -9.3247 C.3    1 <0>       0.0200
   27 C27       7.2860    -2.5924    -7.5563 C.ar   1 <0>      -0.1800
   28 C28       1.2740    -2.6064    -2.2116 C.ar   1 <0>      -0.1600
   29 C29       0.6617    -1.9965    -1.1290 C.ar   1 <0>       0.1000
   30 O30       0.1074    -2.7530    -0.1443 O.3    1 <0>      -0.3100
   31 C31       0.1928    -4.1720    -0.2904 C.3    1 <0>       0.0300
   32 H32       1.0053     1.8021     0.0021 H      1 <0>       0.0600
   33 H33      -0.5445     1.7859    -0.8732 H      1 <0>       0.0600
   34 H34      -0.5275     1.7763     0.9067 H      1 <0>       0.1000
   35 H35       1.1343     1.2366    -2.0060 H      1 <0>       0.1400
   36 H36       2.2283     0.1421    -3.9204 H      1 <0>       0.1300
   37 H37       3.6102    -1.4472    -7.2613 H      1 <0>       0.1000
   38 H38       4.0880    -0.5141    -5.8039 H      1 <0>       0.0700
   39 H39       4.8377    -3.7649    -2.5834 H      1 <0>       0.1000
   40 H40       4.3598    -4.6956    -4.0423 H      1 <0>       0.0700
   41 H41       6.0079    -5.3323    -6.0580 H      1 <0>       0.1300
   42 H42       7.1006    -6.4157    -7.9795 H      1 <0>       0.1400
   43 H43       7.8756    -5.2585   -10.6331 H      1 <0>       0.3900
   44 H44       7.5869    -0.6428    -9.3161 H      1 <0>       0.0600
   45 H45       9.0812    -0.8230    -8.3659 H      1 <0>       0.0600
   46 H46       9.1711    -0.5473   -10.1220 H      1 <0>       0.1000
   47 H47       7.3373    -1.5206    -7.4338 H      1 <0>       0.1300
   48 H48       1.3146    -3.6839    -2.2726 H      1 <0>       0.1400
   49 H49       1.2403    -4.4703    -0.3345 H      1 <0>       0.0600
   50 H50      -0.2869    -4.6545     0.5611 H      1 <0>       0.1000
   51 H51      -0.3098    -4.4735    -1.2094 H      1 <0>       0.0600
@<TRIPOS>BOND
   1    1    2 1
   2    1   32 1
   3    1   33 1
   4    1   34 1
   5    2    3 1
   6    3   29 ar
   7    3    4 ar
   8    4    5 ar
   9    4   35 1
  10    5    6 ar
  11    5   36 1
  12    6    7 1
  13    6   28 ar
  14    7    8 1
  15    7   13 1
  16    7    9 1
  17    9   10 1
  18   10   11 1
  19   10   37 1
  20   10   38 1
  21   11   12 1
  22   11   17 1
  23   11   13 1
  24   13   14 1
  25   13   15 1
  26   15   16 1
  27   15   39 1
  28   15   40 1
  29   16   17 1
  30   17   18 1
  31   17   19 1
  32   19   27 ar
  33   19   20 ar
  34   20   21 ar
  35   20   41 1
  36   21   22 ar
  37   21   42 1
  38   22   23 1
  39   22   24 ar
  40   23   43 1
  41   24   25 1
  42   24   27 ar
  43   25   26 1
  44   26   44 1
  45   26   45 1
  46   26   46 1
  47   27   47 1
  48   28   29 ar
  49   28   48 1
  50   29   30 1
  51   30   31 1
  52   31   49 1
  53   31   50 1
  54   31   51 1
