@<TRIPOS>MOLECULE
ZINC000096273105
70    73    1     0     0
SMALL
USER_CHARGES
@<TRIPOS>ATOM
1      C1      1.0857   -0.2213   -5.8273 C.3      1 ZINC000096273105    0.0300
2      O2      0.6196   -1.2747   -4.9816 O.3      1 ZINC000096273105   -0.3300
3      C3      0.8741   -1.1565   -3.6511 C.ar     1 ZINC000096273105    0.0800
4      C4      1.5498   -0.0522   -3.1730 C.ar     1 ZINC000096273105   -0.1500
5      C5      1.8096    0.0664   -1.8030 C.ar     1 ZINC000096273105   -0.1000
6      C6      2.5297    1.2427   -1.2877 C.2      1 ZINC000096273105    0.5200
7      O7      2.9016    2.1178   -2.0575 O.co2    1 ZINC000096273105   -0.6900
8      O8      2.7562    1.3451   -0.0898 O.co2    1 ZINC000096273105   -0.6800
9      C9      1.3835   -0.9347   -0.9242 C.ar     1 ZINC000096273105   -0.1000
10     C10     0.7100   -2.0344   -1.4075 C.ar     1 ZINC000096273105   -0.1000
11     C11     0.4467   -2.1497   -2.7675 C.ar     1 ZINC000096273105    0.0900
12     N12    -0.2358   -3.2658   -3.2522 N.am     1 ZINC000096273105   -0.6400
13     C13    -0.0983   -4.4583   -2.6394 C.2      1 ZINC000096273105    0.4900
14     O14     0.5544   -4.5451   -1.6209 O.2      1 ZINC000096273105   -0.5200
15     C15    -0.7556   -5.6839   -3.2199 C.3      1 ZINC000096273105    0.0500
16     H16    -1.7541   -5.4423   -3.5842 H        1 ZINC000096273105    0.1300
17     N17    -0.8223   -6.7661   -2.2043 N.3      1 ZINC000096273105   -0.6300
18     C18     0.5443   -7.3487   -2.2014 C.3      1 ZINC000096273105    0.0700
19     H19     1.2231   -6.7228   -1.6222 H        1 ZINC000096273105    0.1100
20     C20     0.5172   -8.7701   -1.6358 C.3      1 ZINC000096273105   -0.1000
21     C21     0.1168   -8.7241   -0.1598 C.3      1 ZINC000096273105   -0.0700
22     C22    -1.3002   -8.1611   -0.0331 C.3      1 ZINC000096273105   -0.1400
23     C23     0.1580  -10.1377    0.4241 C.3      1 ZINC000096273105   -0.1400
24     C24     1.0921   -7.8275    0.6056 C.3      1 ZINC000096273105   -0.1500
25     C25     0.9631   -7.3656   -3.6872 C.3      1 ZINC000096273105    0.0900
26     C26     0.6724   -8.6788   -4.2854 C.1      1 ZINC000096273105    0.2300
27     N27     0.4479   -9.6922   -4.7471 N.1      1 ZINC000096273105   -0.4100
28     C28     2.4291   -7.0434   -3.8214 C.ar     1 ZINC000096273105   -0.1200
29     C29     3.2131   -6.9080   -2.6916 C.ar     1 ZINC000096273105   -0.0600
30     C30     4.5580   -6.6123   -2.8138 C.ar     1 ZINC000096273105   -0.1100
31     C31     5.1206   -6.4517   -4.0674 C.ar     1 ZINC000096273105    0.0000
32     Cl32    6.8097   -6.0811   -4.2197 Cl       1 ZINC000096273105   -0.0500
33     C33     4.3373   -6.5869   -5.1995 C.ar     1 ZINC000096273105   -0.1500
34     C34     2.9919   -6.8885   -5.0773 C.ar     1 ZINC000096273105    0.1300
35     F35     2.2259   -7.0212   -6.1822 F        1 ZINC000096273105   -0.1200
36     C36     0.1065   -6.2686   -4.3593 C.3      1 ZINC000096273105   -0.0200
37     H37     0.7468   -5.4963   -4.7855 H        1 ZINC000096273105    0.1100
38     C38    -0.7693   -6.8699   -5.4282 C.ar     1 ZINC000096273105   -0.1100
39     C39    -1.6981   -7.8380   -5.0969 C.ar     1 ZINC000096273105   -0.0700
40     C40    -2.5024   -8.3900   -6.0768 C.ar     1 ZINC000096273105   -0.1200
41     C41    -2.3785   -7.9748   -7.3893 C.ar     1 ZINC000096273105   -0.0800
42     C42    -1.4494   -7.0062   -7.7238 C.ar     1 ZINC000096273105   -0.0800
43     Cl43   -1.2931   -6.4848   -9.3723 Cl       1 ZINC000096273105   -0.0500
44     C44    -0.6474   -6.4484   -6.7413 C.ar     1 ZINC000096273105    0.1300
45     F45     0.2607   -5.5023   -7.0662 F        1 ZINC000096273105   -0.1200
46     H46     2.1694   -0.1399   -5.7425 H        1 ZINC000096273105    0.0600
47     H47     0.8175   -0.4397   -6.8610 H        1 ZINC000096273105    0.0900
48     H48     0.6258    0.7190   -5.5235 H        1 ZINC000096273105    0.0600
49     H49     1.8777    0.7186   -3.8547 H        1 ZINC000096273105    0.1400
50     H50     1.5828   -0.8454    0.1334 H        1 ZINC000096273105    0.1300
51     H51     0.3819   -2.8068   -0.7278 H        1 ZINC000096273105    0.1400
52     H52    -0.8092   -3.1835   -4.0301 H        1 ZINC000096273105    0.4100
53     H53    -1.0595   -6.3957   -1.2962 H        1 ZINC000096273105    0.3600
54     H54    -0.2062   -9.3680   -2.1901 H        1 ZINC000096273105    0.0700
55     H55     1.5067   -9.2175   -1.7300 H        1 ZINC000096273105    0.0700
56     H56    -1.8831   -8.4435   -0.9098 H        1 ZINC000096273105    0.0700
57     H57    -1.7726   -8.5642    0.8626 H        1 ZINC000096273105    0.0500
58     H58    -1.2544   -7.0744    0.0381 H        1 ZINC000096273105    0.0600
59     H59     1.1675  -10.5388    0.3338 H        1 ZINC000096273105    0.0500
60     H60    -0.1273  -10.1049    1.4756 H        1 ZINC000096273105    0.0600
61     H61    -0.5368  -10.7764   -0.1212 H        1 ZINC000096273105    0.0500
62     H62     1.0628   -6.8204    0.1896 H        1 ZINC000096273105    0.0700
63     H63     0.8069   -7.7948    1.6571 H        1 ZINC000096273105    0.0600
64     H64     2.1016   -8.2286    0.5153 H        1 ZINC000096273105    0.0500
65     H65     2.7747   -7.0328   -1.7124 H        1 ZINC000096273105    0.1500
66     H66     5.1698   -6.5064   -1.9301 H        1 ZINC000096273105    0.1500
67     H67     4.7761   -6.4612   -6.1783 H        1 ZINC000096273105    0.1500
68     H68    -1.7956   -8.1640   -4.0719 H        1 ZINC000096273105    0.1500
69     H69    -3.2279   -9.1465   -5.8165 H        1 ZINC000096273105    0.1400
70     H70    -3.0071   -8.4069   -8.1539 H        1 ZINC000096273105    0.1400
@<TRIPOS>BOND
1     1     2     1
2     1     46    1
3     1     47    1
4     1     48    1
5     2     3     1
6     3     11    ar
7     3     4     ar
8     4     5     ar
9     4     49    1
10    5     6     1
11    5     9     ar
12    6     7     ar
13    6     8     ar
14    9     10    ar
15    9     50    1
16    10    11    ar
17    10    51    1
18    11    12    1
19    12    13    am
20    12    52    1
21    13    14    2
22    13    15    1
23    15    16    1
24    15    36    1
25    15    17    1
26    17    18    1
27    17    53    1
28    18    19    1
29    18    20    1
30    18    25    1
31    20    21    1
32    20    54    1
33    20    55    1
34    21    22    1
35    21    23    1
36    21    24    1
37    22    56    1
38    22    57    1
39    22    58    1
40    23    59    1
41    23    60    1
42    23    61    1
43    24    62    1
44    24    63    1
45    24    64    1
46    25    26    1
47    25    28    1
48    25    36    1
49    26    27    3
50    28    34    ar
51    28    29    ar
52    29    30    ar
53    29    65    1
54    30    31    ar
55    30    66    1
56    31    32    1
57    31    33    ar
58    33    34    ar
59    33    67    1
60    34    35    1
61    36    37    1
62    36    38    1
63    38    44    ar
64    38    39    ar
65    39    40    ar
66    39    68    1
67    40    41    ar
68    40    69    1
69    41    42    ar
70    41    70    1
71    42    43    1
72    42    44    ar
73    44    45    1
@<TRIPOS>SUBSTRUCTURE
1   ZINC000096273105 1     RESIDUE    1   A     ZIN   1
