@<TRIPOS>MOLECULE
ZINC000003132858
66    72    1     0     0
SMALL
USER_CHARGES
@<TRIPOS>ATOM
1      C1     -0.0167    1.3792    0.0096 C.ar     1 ZINC000003132858   -0.1200
2      C2      1.1686    2.0927    0.0021 C.ar     1 ZINC000003132858   -0.1200
3      C3      2.3774    1.4275   -0.0134 C.ar     1 ZINC000003132858   -0.0900
4      C4      2.4028    0.0332   -0.0211 C.ar     1 ZINC000003132858   -0.0100
5      C5      3.6975   -0.6870   -0.0372 C.2      1 ZINC000003132858    0.0700
6      C6      3.9700   -1.8914    0.5911 C.2      1 ZINC000003132858    0.0400
7      C7      3.0349   -2.6985    1.3988 C.ar     1 ZINC000003132858   -0.0300
8      C8      2.2145   -2.0824    2.3470 C.ar     1 ZINC000003132858   -0.0800
9      C9      1.3431   -2.8430    3.0983 C.ar     1 ZINC000003132858   -0.1200
10     C10     1.2803   -4.2131    2.9147 C.ar     1 ZINC000003132858   -0.1100
11     C11     2.0900   -4.8301    1.9773 C.ar     1 ZINC000003132858   -0.1200
12     C12     2.9620   -4.0814    1.2149 C.ar     1 ZINC000003132858   -0.1100
13     N13     5.2843   -2.1861    0.3128 N.pl3    1 ZINC000003132858   -0.5500
14     C14     5.7690   -1.1723   -0.4635 C.2      1 ZINC000003132858    0.2500
15     C15     7.1443   -1.0823   -0.9938 C.ar     1 ZINC000003132858    0.0000
16     C16     8.0685   -2.0928   -0.7145 C.ar     1 ZINC000003132858   -0.1100
17     C17     9.3454   -2.0093   -1.2068 C.ar     1 ZINC000003132858   -0.0700
18     C18     9.7227   -0.9138   -1.9885 C.ar     1 ZINC000003132858    0.0000
19     C19    11.0981   -0.8236   -2.5184 C.2      1 ZINC000003132858    0.2500
20     N20    12.0482   -1.7111   -2.3269 N.2      1 ZINC000003132858   -0.4500
21     C21    13.1680   -1.3118   -2.9496 C.2      1 ZINC000003132858    0.0700
22     C22    14.4603   -2.0361   -2.9725 C.ar     1 ZINC000003132858   -0.0100
23     C23    15.2667   -1.9932   -4.1095 C.ar     1 ZINC000003132858   -0.1000
24     C24    16.4692   -2.6698   -4.1249 C.ar     1 ZINC000003132858   -0.1200
25     C25    16.8751   -3.3902   -3.0157 C.ar     1 ZINC000003132858   -0.1200
26     C26    16.0794   -3.4365   -1.8849 C.ar     1 ZINC000003132858   -0.1200
27     C27    14.8777   -2.7589   -1.8553 C.ar     1 ZINC000003132858   -0.0900
28     C28    12.8992   -0.1011   -3.5671 C.2      1 ZINC000003132858    0.0400
29     C29    13.8366    0.7100   -4.3682 C.ar     1 ZINC000003132858   -0.0300
30     C30    15.1414    0.9241   -3.9175 C.ar     1 ZINC000003132858   -0.0800
31     C31    16.0120    1.6831   -4.6713 C.ar     1 ZINC000003132858   -0.1200
32     C32    15.5956    2.2320   -5.8714 C.ar     1 ZINC000003132858   -0.1100
33     C33    14.3045    2.0241   -6.3240 C.ar     1 ZINC000003132858   -0.1200
34     C34    13.4249    1.2625   -5.5834 C.ar     1 ZINC000003132858   -0.1100
35     N35    11.5842    0.1926   -3.2907 N.pl3    1 ZINC000003132858   -0.5500
36     C36     8.7981    0.0960   -2.2690 C.ar     1 ZINC000003132858   -0.1100
37     C37     7.5201    0.0105   -1.7799 C.ar     1 ZINC000003132858   -0.0700
38     N38     4.8144   -0.2926   -0.6680 N.2      1 ZINC000003132858   -0.4500
39     C39     1.2047   -0.6805   -0.0130 C.ar     1 ZINC000003132858   -0.1000
40     C40     0.0021   -0.0041    0.0020 C.ar     1 ZINC000003132858   -0.1200
41     H41    -0.9604    1.9042    0.0260 H        1 ZINC000003132858    0.1200
42     H42     1.1476    3.1725    0.0081 H        1 ZINC000003132858    0.1200
43     H43     3.3020    1.9856   -0.0199 H        1 ZINC000003132858    0.1300
44     H44     2.2627   -1.0132    2.4915 H        1 ZINC000003132858    0.1300
45     H45     0.7085   -2.3681    3.8319 H        1 ZINC000003132858    0.1300
46     H46     0.5963   -4.8038    3.5060 H        1 ZINC000003132858    0.1300
47     H47     2.0357   -5.8999    1.8393 H        1 ZINC000003132858    0.1300
48     H48     3.5931   -4.5642    0.4834 H        1 ZINC000003132858    0.1200
49     H49     5.7751   -2.9675    0.6121 H        1 ZINC000003132858    0.4200
50     H50     7.7770   -2.9394   -0.1105 H        1 ZINC000003132858    0.1300
51     H51    10.0597   -2.7898   -0.9904 H        1 ZINC000003132858    0.1400
52     H52    14.9506   -1.4318   -4.9762 H        1 ZINC000003132858    0.1200
53     H53    17.0946   -2.6373   -5.0048 H        1 ZINC000003132858    0.1200
54     H54    17.8167   -3.9187   -3.0327 H        1 ZINC000003132858    0.1200
55     H55    16.4013   -4.0008   -1.0222 H        1 ZINC000003132858    0.1200
56     H56    14.2575   -2.7955   -0.9719 H        1 ZINC000003132858    0.1300
57     H57    15.4676    0.4965   -2.9809 H        1 ZINC000003132858    0.1300
58     H58    17.0210    1.8497   -4.3240 H        1 ZINC000003132858    0.1300
59     H59    16.2814    2.8258   -6.4575 H        1 ZINC000003132858    0.1300
60     H60    13.9863    2.4556   -7.2616 H        1 ZINC000003132858    0.1300
61     H61    12.4177    1.1007   -5.9380 H        1 ZINC000003132858    0.1200
62     H62    11.0956    0.9776   -3.5838 H        1 ZINC000003132858    0.4200
63     H63     9.0895    0.9423   -2.8733 H        1 ZINC000003132858    0.1300
64     H64     6.8056    0.7909   -1.9966 H        1 ZINC000003132858    0.1400
65     H65     1.2181   -1.7604   -0.0189 H        1 ZINC000003132858    0.1200
66     H66    -0.9264   -0.5557    0.0083 H        1 ZINC000003132858    0.1200
@<TRIPOS>BOND
1     1     40    ar
2     1     2     ar
3     1     41    1
4     2     3     ar
5     2     42    1
6     3     4     ar
7     3     43    1
8     4     5     1
9     4     39    ar
10    5     38    1
11    5     6     2
12    6     7     1
13    6     13    1
14    7     12    ar
15    7     8     ar
16    8     9     ar
17    8     44    1
18    9     10    ar
19    9     45    1
20    10    11    ar
21    10    46    1
22    11    12    ar
23    11    47    1
24    12    48    1
25    13    14    1
26    13    49    1
27    14    15    1
28    14    38    2
29    15    37    ar
30    15    16    ar
31    16    17    ar
32    16    50    1
33    17    18    ar
34    17    51    1
35    18    19    1
36    18    36    ar
37    19    35    1
38    19    20    2
39    20    21    1
40    21    22    1
41    21    28    2
42    22    27    ar
43    22    23    ar
44    23    24    ar
45    23    52    1
46    24    25    ar
47    24    53    1
48    25    26    ar
49    25    54    1
50    26    27    ar
51    26    55    1
52    27    56    1
53    28    29    1
54    28    35    1
55    29    34    ar
56    29    30    ar
57    30    31    ar
58    30    57    1
59    31    32    ar
60    31    58    1
61    32    33    ar
62    32    59    1
63    33    34    ar
64    33    60    1
65    34    61    1
66    35    62    1
67    36    37    ar
68    36    63    1
69    37    64    1
70    39    40    ar
71    39    65    1
72    40    66    1
@<TRIPOS>SUBSTRUCTURE
1   ZINC000003132858 1     RESIDUE    1   A     ZIN   1
