@<TRIPOS>MOLECULE
ZINC000001545658
  21   22    0    0    0
SMALL
USER_CHARGES
NO_NAME
@<TRIPOS>ATOM
    1 N1       -0.0116     1.0048     0.0076 N.4    1 <0>      -0.6000
    2 H2        0.0021    -0.0041     0.0020 H      1 <0>       0.4300
    3 H3        0.9350     1.3541     0.0004 H      1 <0>       0.4200
    4 H4       -0.4996     1.3391    -0.8099 H      1 <0>       0.4300
    5 C5       -0.6992     1.4786     1.2162 C.3    1 <0>      -0.0300
    6 C6       -2.1425     1.0450     1.2146 C.2    1 <0>       0.5100
    7 O7       -2.5781     0.3794     0.2906 O.co2  1 <0>      -0.6800
    8 O8       -2.8746     1.3599     2.1373 O.co2  1 <0>      -0.6300
    9 C9       -0.5805     3.0180     1.3515 C.3    1 <0>       0.0600
   10 O10       0.7322     3.2059     1.9225 O.3    1 <0>      -0.3600
   11 C11       0.9138     2.1716     2.9050 C.3    1 <0>       0.0300
   12 H12       0.9885     2.4808     3.9476 H      1 <0>       0.1500
   13 C13       0.0238     0.9835     2.4917 C.3    1 <0>      -0.1800
   14 H14      -0.5507     0.4071     3.2168 H      1 <0>       0.1500
   15 C15       1.5883     0.8697     2.4643 C.3    1 <0>      -0.1700
   16 H16       2.0741     0.8556     1.4887 H      1 <0>       0.0900
   17 C17       2.2421     0.0252     3.5275 C.2    1 <0>       0.5200
   18 O18       3.1866    -0.6909     3.2419 O.co2  1 <0>      -0.6800
   19 O19       1.8265     0.0580     4.6733 O.co2  1 <0>      -0.6700
   20 H20      -0.6456     3.4954     0.3737 H      1 <0>       0.1000
   21 H21      -1.3490     3.4049     2.0206 H      1 <0>       0.1100
@<TRIPOS>BOND
   1    1    2 1
   2    1    3 1
   3    1    4 1
   4    1    5 1
   5    5   13 1
   6    5    6 1
   7    5    9 1
   8    6    7 ar
   9    6    8 ar
  10    9   10 1
  11    9   20 1
  12    9   21 1
  13   10   11 1
  14   11   12 1
  15   11   15 1
  16   11   13 1
  17   13   14 1
  18   13   15 1
  19   15   16 1
  20   15   17 1
  21   17   18 ar
  22   17   19 ar
