@<TRIPOS>MOLECULE
ZINC000001484900
32    33    1     0     0
SMALL
USER_CHARGES
@<TRIPOS>ATOM
1      C1      0.6305   -1.2144   -0.0048 C.1      1 ZINC000001484900   -0.1400
2      C2      0.4427   -0.0555   -0.0023 C.1      1 ZINC000001484900   -0.2300
3      C3      0.2072    1.3975    0.0008 C.3      1 ZINC000001484900    0.2300
4      O4     -0.5861    1.7774   -1.1254 O.3      1 ZINC000001484900   -0.5100
5      C5     -0.4734    1.8328    1.3178 C.3      1 ZINC000001484900    0.0900
6      H6     -0.6356    0.9721    1.9666 H        1 ZINC000001484900    0.0900
7      O7     -1.7108    2.4943    1.0470 O.3      1 ZINC000001484900   -0.5200
8      C8      0.5375    2.8101    1.9576 C.3      1 ZINC000001484900    0.2500
9      H9      0.2889    3.8386    1.6957 H        1 ZINC000001484900    0.1400
10     N10     0.5547    2.6454    3.4132 N.am     1 ZINC000001484900   -0.5300
11     C11     1.0212    1.4872    3.9589 C.2      1 ZINC000001484900    0.2000
12     C12     1.0325    1.3471    5.3056 C.2      1 ZINC000001484900   -0.3000
13     C13     0.5598    2.4069    6.1066 C.2      1 ZINC000001484900    0.5100
14     N14     0.5604    2.2915    7.4774 N.pl3    1 ZINC000001484900   -0.8100
15     N15     0.1150    3.5161    5.5307 N.2      1 ZINC000001484900   -0.6100
16     C16     0.1150    3.6409    4.2047 C.2      1 ZINC000001484900    0.6600
17     O17    -0.2989    4.6711    3.6991 O.2      1 ZINC000001484900   -0.5400
18     O18     1.8147    2.4421    1.3927 O.3      1 ZINC000001484900   -0.3500
19     C19     1.5489    2.1633    0.0007 C.3      1 ZINC000001484900    0.0600
20     H20     1.4554    3.0925   -0.5613 H        1 ZINC000001484900    0.1100
21     C21     2.6609    1.2942   -0.5902 C.3      1 ZINC000001484900    0.0800
22     O22     3.8810    2.0374   -0.6206 O.3      1 ZINC000001484900   -0.5600
23     H23     0.7984   -2.2509   -0.0071 H        1 ZINC000001484900    0.2300
24     H24    -0.1897    1.5546   -1.9788 H        1 ZINC000001484900    0.3800
25     H25    -2.2198    2.7160    1.8388 H        1 ZINC000001484900    0.3900
26     H26     1.3777    0.6895    3.3240 H        1 ZINC000001484900    0.1700
27     H27     1.3975    0.4375    5.7593 H        1 ZINC000001484900    0.1600
28     H28     0.8865    1.4793    7.8956 H        1 ZINC000001484900    0.4200
29     H29     0.2346    3.0223    8.0258 H        1 ZINC000001484900    0.4100
30     H30     2.7926    0.4045    0.0256 H        1 ZINC000001484900    0.0600
31     H31     2.3906    0.9979   -1.6037 H        1 ZINC000001484900    0.0700
32     H32     4.6311    1.5473   -0.9842 H        1 ZINC000001484900    0.3900
@<TRIPOS>BOND
1     1     2     3
2     1     23    1
3     2     3     1
4     3     19    1
5     3     4     1
6     3     5     1
7     4     24    1
8     5     6     1
9     5     7     1
10    5     8     1
11    7     25    1
12    8     9     1
13    8     10    1
14    8     18    1
15    10    16    am
16    10    11    1
17    11    12    2
18    11    26    1
19    12    13    1
20    12    27    1
21    13    14    1
22    13    15    2
23    14    28    1
24    14    29    1
25    15    16    1
26    16    17    2
27    18    19    1
28    19    20    1
29    19    21    1
30    21    22    1
31    21    30    1
32    21    31    1
33    22    32    1
@<TRIPOS>SUBSTRUCTURE
1   ZINC000001484900 1     RESIDUE    1   A     ZIN   1
