@<TRIPOS>MOLECULE
ZINC000029042536
60    63    1     0     0
SMALL
USER_CHARGES
@<TRIPOS>ATOM
1      C1     -0.0184    1.5028    0.0103 C.3      1 ZINC000029042536   -0.1300
2      C2      0.0021   -0.0041    0.0020 C.ar     1 ZINC000029042536   -0.0900
3      C3      0.0058   -0.6872   -1.2001 C.ar     1 ZINC000029042536   -0.0900
4      C4      0.0249   -2.0683   -1.2113 C.ar     1 ZINC000029042536   -0.1600
5      C5      0.0405   -2.7708   -0.0132 C.ar     1 ZINC000029042536    0.0800
6      N6      0.0604   -4.1673   -0.0209 N.3      1 ZINC000029042536   -0.4900
7      C7      1.2129   -4.6819    0.7322 C.3      1 ZINC000029042536    0.0300
8      C8      1.1651   -6.2113    0.7500 C.3      1 ZINC000029042536    0.0000
9      N9      1.1931   -6.7183   -0.6282 N.4      1 ZINC000029042536   -0.3900
10     H10     2.0360   -6.4038   -1.0850 H        1 ZINC000029042536    0.4200
11     C11     1.1651   -8.1869   -0.6101 C.3      1 ZINC000029042536    0.0000
12     C12     1.3198   -8.7177   -2.0367 C.3      1 ZINC000029042536   -0.1700
13     C13     1.2906  -10.2473   -2.0178 C.3      1 ZINC000029042536    0.1200
14     N14     1.4387  -10.7554   -3.3838 N.am     1 ZINC000029042536   -0.7200
15     C15     1.4415  -12.0837   -3.6121 C.2      1 ZINC000029042536    0.6300
16     O16     1.3213  -12.8597   -2.6850 O.2      1 ZINC000029042536   -0.4600
17     C17     1.5914  -12.5981   -4.9947 C.2      1 ZINC000029042536    0.1300
18     N18     1.6061  -13.8617   -5.3634 N.2      1 ZINC000029042536   -0.4000
19     C19     1.7623  -13.8464   -6.7026 C.2      1 ZINC000029042536    0.2300
20     C20     1.8394  -15.0321   -7.5926 C.ar     1 ZINC000029042536   -0.0900
21     C21     2.0092  -14.8756   -8.9704 C.ar     1 ZINC000029042536   -0.0300
22     C22     2.0756  -16.0130   -9.7573 C.ar     1 ZINC000029042536   -0.1700
23     C23     1.9728  -17.2556   -9.1598 C.ar     1 ZINC000029042536    0.1300
24     N24     1.8129  -17.3718   -7.8555 N.ar     1 ZINC000029042536   -0.4800
25     C25     1.7496  -16.3189   -7.0665 C.ar     1 ZINC000029042536    0.1500
26     N26     1.8334  -12.5930   -7.0731 N.2      1 ZINC000029042536   -0.3500
27     O27     1.7320  -11.8641   -6.1090 O.3      1 ZINC000029042536    0.1100
28     C28     0.0231   -6.2159   -1.3605 C.3      1 ZINC000029042536   -0.0100
29     C29     0.0614   -4.6865   -1.3959 C.3      1 ZINC000029042536    0.0200
30     C30     0.0368   -2.0812    1.1929 C.ar     1 ZINC000029042536   -0.1300
31     C31     0.0229   -0.7004    1.1968 C.ar     1 ZINC000029042536   -0.0600
32     C32     0.0193    0.0485    2.5046 C.3      1 ZINC000029042536   -0.1300
33     H33     1.0042    1.8801    0.0026 H        1 ZINC000029042536    0.0800
34     H34    -0.5455    1.8639   -0.8728 H        1 ZINC000029042536    0.0700
35     H35    -0.5286    1.8543    0.9071 H        1 ZINC000029042536    0.0800
36     H36    -0.0067   -0.1404   -2.1313 H        1 ZINC000029042536    0.1300
37     H37     0.0274   -2.6013   -2.1506 H        1 ZINC000029042536    0.1300
38     H38     2.1357   -4.3524    0.2548 H        1 ZINC000029042536    0.0700
39     H39     1.1771   -4.3049    1.7543 H        1 ZINC000029042536    0.1300
40     H40     2.0268   -6.5953    1.2960 H        1 ZINC000029042536    0.1400
41     H41     0.2486   -6.5404    1.2397 H        1 ZINC000029042536    0.1400
42     H42     1.9837   -8.5583    0.0065 H        1 ZINC000029042536    0.1400
43     H43     0.2156   -8.5271   -0.1968 H        1 ZINC000029042536    0.1400
44     H44     0.5012   -8.3463   -2.6533 H        1 ZINC000029042536    0.1000
45     H45     2.2693   -8.3774   -2.4500 H        1 ZINC000029042536    0.1000
46     H46     2.1092  -10.6187   -1.4012 H        1 ZINC000029042536    0.0900
47     H47     0.3411  -10.5875   -1.6045 H        1 ZINC000029042536    0.0900
48     H48     1.5347  -10.1359   -4.1240 H        1 ZINC000029042536    0.4100
49     H49     2.0862  -13.8925   -9.4106 H        1 ZINC000029042536    0.1400
50     H50     2.2060  -15.9304  -10.8262 H        1 ZINC000029042536    0.1500
51     H51     2.0238  -18.1450   -9.7704 H        1 ZINC000029042536    0.1700
52     H52     1.6184  -16.4543   -6.0031 H        1 ZINC000029042536    0.1700
53     H53     0.0381   -6.6034   -2.3792 H        1 ZINC000029042536    0.1400
54     H54    -0.8875   -6.5450   -0.8600 H        1 ZINC000029042536    0.1400
55     H55    -0.8145   -4.3130   -1.9263 H        1 ZINC000029042536    0.1300
56     H56     0.9652   -4.3571   -1.9084 H        1 ZINC000029042536    0.0700
57     H57     0.0485   -2.6244    2.1263 H        1 ZINC000029042536    0.1300
58     H58     1.0460    0.2394    2.8168 H        1 ZINC000029042536    0.0800
59     H59    -0.5045    0.9962    2.3791 H        1 ZINC000029042536    0.0800
60     H60    -0.4863   -0.5484    3.2637 H        1 ZINC000029042536    0.0700
@<TRIPOS>BOND
1     1     2     1
2     1     33    1
3     1     34    1
4     1     35    1
5     2     31    ar
6     2     3     ar
7     3     4     ar
8     3     36    1
9     4     5     ar
10    4     37    1
11    5     6     1
12    5     30    ar
13    6     29    1
14    6     7     1
15    7     8     1
16    7     38    1
17    7     39    1
18    8     9     1
19    8     40    1
20    8     41    1
21    9     10    1
22    9     11    1
23    9     28    1
24    11    12    1
25    11    42    1
26    11    43    1
27    12    13    1
28    12    44    1
29    12    45    1
30    13    14    1
31    13    46    1
32    13    47    1
33    14    15    am
34    14    48    1
35    15    16    2
36    15    17    1
37    17    27    1
38    17    18    2
39    18    19    1
40    19    20    1
41    19    26    2
42    20    25    ar
43    20    21    ar
44    21    22    ar
45    21    49    1
46    22    23    ar
47    22    50    1
48    23    24    ar
49    23    51    1
50    24    25    ar
51    25    52    1
52    26    27    1
53    28    29    1
54    28    53    1
55    28    54    1
56    29    55    1
57    29    56    1
58    30    31    ar
59    30    57    1
60    31    32    1
61    32    58    1
62    32    59    1
63    32    60    1
@<TRIPOS>SUBSTRUCTURE
1   ZINC000029042536 1     RESIDUE    1   A     ZIN   1
