@<TRIPOS>MOLECULE
ZINC000013563531
49    52    1     0     0
SMALL
USER_CHARGES
@<TRIPOS>ATOM
1      O1      0.1112    0.2101   -0.7080 O.2      1 ZINC000013563531   -0.1600
2      N2     -0.0123    1.2185   -0.0362 N.pl3    1 ZINC000013563531    0.0300
3      O3      0.9292    1.6364    0.6138 O.2      1 ZINC000013563531   -0.1600
4      C4     -1.3049    1.9396   -0.0145 C.ar     1 ZINC000013563531   -0.0600
5      C5     -1.4417    3.0876    0.7443 C.ar     1 ZINC000013563531   -0.0300
6      C6     -2.6462    3.7630    0.7664 C.ar     1 ZINC000013563531   -0.1500
7      C7     -3.7207    3.2881    0.0254 C.ar     1 ZINC000013563531    0.2200
8      N8     -4.9414    3.9698    0.0452 N.pl3    1 ZINC000013563531   -0.6200
9      C9     -6.1268    3.2669   -0.0520 C.ar     1 ZINC000013563531    0.6300
10     N10    -6.1136    1.9376   -0.0479 N.ar     1 ZINC000013563531   -0.6400
11     C11    -7.2542    1.2613   -0.1410 C.ar     1 ZINC000013563531    0.5900
12     N12    -7.2405   -0.1188   -0.1363 N.3      1 ZINC000013563531   -0.4500
13     C13    -8.0875   -0.6504    0.9413 C.3      1 ZINC000013563531    0.0300
14     C14    -8.0909   -2.1799    0.8728 C.3      1 ZINC000013563531    0.0600
15     O15    -6.7459   -2.6588    0.9551 O.3      1 ZINC000013563531   -0.3800
16     C16    -5.8933   -2.1612   -0.0797 C.3      1 ZINC000013563531    0.0600
17     C17    -5.8675   -0.6316   -0.0209 C.3      1 ZINC000013563531    0.0300
18     N18    -8.4081    1.9142   -0.2381 N.ar     1 ZINC000013563531   -0.6000
19     C19    -8.4213    3.2435   -0.2422 C.ar     1 ZINC000013563531    0.5900
20     N20    -9.6193    3.9214   -0.3426 N.3      1 ZINC000013563531   -0.4500
21     C21   -10.3549    3.5154   -1.5490 C.3      1 ZINC000013563531    0.0300
22     C22   -11.7002    4.2451   -1.5896 C.3      1 ZINC000013563531    0.0600
23     O23   -11.4730    5.6564   -1.5432 O.3      1 ZINC000013563531   -0.3800
24     C24   -10.7594    6.0867   -0.3809 C.3      1 ZINC000013563531    0.0600
25     C25    -9.4046    5.3757   -0.3281 C.3      1 ZINC000013563531    0.0300
26     N26    -7.2811    3.9199   -0.1440 N.ar     1 ZINC000013563531   -0.6400
27     C27    -3.5798    2.1348   -0.7356 C.ar     1 ZINC000013563531   -0.1200
28     C28    -2.3711    1.4670   -0.7575 C.ar     1 ZINC000013563531   -0.0300
29     H29    -0.6060    3.4562    1.3205 H        1 ZINC000013563531    0.1600
30     H30    -2.7525    4.6593    1.3595 H        1 ZINC000013563531    0.1500
31     H31    -4.9559    4.9363    0.1272 H        1 ZINC000013563531    0.4300
32     H32    -7.6932   -0.3301    1.9057 H        1 ZINC000013563531    0.0600
33     H33    -9.1050   -0.2784    0.8216 H        1 ZINC000013563531    0.1100
34     H34    -8.6713   -2.5801    1.7042 H        1 ZINC000013563531    0.1100
35     H35    -8.5346   -2.5010   -0.0695 H        1 ZINC000013563531    0.0700
36     H36    -4.8842   -2.5480    0.0627 H        1 ZINC000013563531    0.1100
37     H37    -6.2731   -2.4819   -1.0498 H        1 ZINC000013563531    0.0700
38     H38    -5.2646   -0.2459   -0.8430 H        1 ZINC000013563531    0.1000
39     H39    -5.4378   -0.3110    0.9281 H        1 ZINC000013563531    0.0700
40     H40    -9.7736    3.7742   -2.4340 H        1 ZINC000013563531    0.0600
41     H41   -10.5252    2.4391   -1.5264 H        1 ZINC000013563531    0.1100
42     H42   -12.2245    3.9909   -2.5108 H        1 ZINC000013563531    0.1100
43     H43   -12.3030    3.9452   -0.7323 H        1 ZINC000013563531    0.0700
44     H44   -10.6032    7.1645   -0.4280 H        1 ZINC000013563531    0.1100
45     H45   -11.3348    5.8403    0.5114 H        1 ZINC000013563531    0.0600
46     H46    -8.8812    5.6573    0.5856 H        1 ZINC000013563531    0.1000
47     H47    -8.8081    5.6642   -1.1936 H        1 ZINC000013563531    0.0700
48     H48    -4.4134    1.7629   -1.3129 H        1 ZINC000013563531    0.1600
49     H49    -2.2609    0.5702   -1.3490 H        1 ZINC000013563531    0.1600
@<TRIPOS>BOND
1     1     2     2
2     2     3     2
3     2     4     1
4     4     28    ar
5     4     5     ar
6     5     6     ar
7     5     29    1
8     6     7     ar
9     6     30    1
10    7     8     1
11    7     27    ar
12    8     9     1
13    8     31    1
14    9     26    ar
15    9     10    ar
16    10    11    ar
17    11    12    1
18    11    18    ar
19    12    17    1
20    12    13    1
21    13    14    1
22    13    32    1
23    13    33    1
24    14    15    1
25    14    34    1
26    14    35    1
27    15    16    1
28    16    17    1
29    16    36    1
30    16    37    1
31    17    38    1
32    17    39    1
33    18    19    ar
34    19    20    1
35    19    26    ar
36    20    25    1
37    20    21    1
38    21    22    1
39    21    40    1
40    21    41    1
41    22    23    1
42    22    42    1
43    22    43    1
44    23    24    1
45    24    25    1
46    24    44    1
47    24    45    1
48    25    46    1
49    25    47    1
50    27    28    ar
51    27    48    1
52    28    49    1
@<TRIPOS>SUBSTRUCTURE
1   ZINC000013563531 1     RESIDUE    1   A     ZIN   1
