@<TRIPOS>MOLECULE
ZINC000001705450
47    49    1     0     0
SMALL
USER_CHARGES
@<TRIPOS>ATOM
1      C1      0.0511    1.5598   -0.1680 C.3      1 ZINC000001705450    0.0200
2      O2      0.1329    0.1357   -0.0836 O.3      1 ZINC000001705450   -0.3000
3      C3      0.6719   -0.5148   -1.1463 C.ar     1 ZINC000001705450    0.2300
4      C4      1.1173    0.2122   -2.2449 C.ar     1 ZINC000001705450   -0.3300
5      C5      1.6679   -0.4399   -3.3326 C.ar     1 ZINC000001705450    0.2600
6      O6      2.1031    0.2680   -4.4056 O.3      1 ZINC000001705450   -0.2800
7      C7      1.9623    1.6888   -4.3460 C.3      1 ZINC000001705450    0.0200
8      C8      1.7737   -1.8367   -3.3187 C.ar     1 ZINC000001705450   -0.2900
9      C9      2.3538   -2.5699   -4.4551 C.2      1 ZINC000001705450    0.4100
10     O10     2.7613   -1.9847   -5.4459 O.2      1 ZINC000001705450   -0.4400
11     C11     2.4215   -3.9837   -4.3539 C.2      1 ZINC000001705450   -0.0800
12     O12     2.9475   -4.7197   -5.3707 O.3      1 ZINC000001705450   -0.3000
13     C13     2.2327   -4.7207   -6.6081 C.3      1 ZINC000001705450    0.0300
14     C14     1.9560   -4.5984   -3.2306 C.2      1 ZINC000001705450    0.1800
15     C15     2.0338   -6.0681   -3.1415 C.ar     1 ZINC000001705450   -0.0700
16     C16     3.2228   -6.7274   -3.4640 C.ar     1 ZINC000001705450   -0.0500
17     C17     3.2935   -8.1018   -3.3796 C.ar     1 ZINC000001705450   -0.1800
18     C18     2.1861   -8.8332   -2.9748 C.ar     1 ZINC000001705450    0.1300
19     O19     2.2613  -10.1875   -2.8934 O.3      1 ZINC000001705450   -0.3000
20     C20     3.5101  -10.7899   -3.2391 C.3      1 ZINC000001705450    0.0200
21     C21     0.9967   -8.1822   -2.6511 C.ar     1 ZINC000001705450    0.0900
22     O22    -0.0864   -8.9024   -2.2539 O.3      1 ZINC000001705450   -0.3000
23     C23    -1.2720   -8.1701   -1.9376 C.3      1 ZINC000001705450    0.0200
24     C24     0.9197   -6.8051   -2.7286 C.ar     1 ZINC000001705450   -0.1400
25     O25     1.4290   -3.9146   -2.2004 O.3      1 ZINC000001705450   -0.2000
26     C26     1.3229   -2.5693   -2.2063 C.ar     1 ZINC000001705450    0.2200
27     C27     0.7781   -1.8968   -1.1233 C.ar     1 ZINC000001705450   -0.2200
28     H28     1.0518    1.9747   -0.2886 H        1 ZINC000001705450    0.0600
29     H29    -0.5632    1.8383   -1.0243 H        1 ZINC000001705450    0.0600
30     H30    -0.3976    1.9527    0.7443 H        1 ZINC000001705450    0.1100
31     H31     1.0326    1.2889   -2.2486 H        1 ZINC000001705450    0.1500
32     H32     0.9088    1.9450   -4.2338 H        1 ZINC000001705450    0.0600
33     H33     2.5226    2.0740   -3.4942 H        1 ZINC000001705450    0.0600
34     H34     2.3479    2.1310   -5.2646 H        1 ZINC000001705450    0.1100
35     H35     2.7077   -5.4148   -7.3014 H        1 ZINC000001705450    0.1000
36     H36     1.2026   -5.0306   -6.4323 H        1 ZINC000001705450    0.0400
37     H37     2.2427   -3.7176   -7.0343 H        1 ZINC000001705450    0.0600
38     H38     4.0861   -6.1606   -3.7797 H        1 ZINC000001705450    0.1400
39     H39     4.2130   -8.6103   -3.6295 H        1 ZINC000001705450    0.1500
40     H40     3.7584  -10.5444   -4.2717 H        1 ZINC000001705450    0.0600
41     H41     4.2907  -10.4130   -2.5782 H        1 ZINC000001705450    0.0600
42     H42     3.4338  -11.8719   -3.1312 H        1 ZINC000001705450    0.1000
43     H43    -1.0649   -7.4783   -1.1211 H        1 ZINC000001705450    0.0600
44     H44    -1.5980   -7.6104   -2.8142 H        1 ZINC000001705450    0.0600
45     H45    -2.0575   -8.8631   -1.6362 H        1 ZINC000001705450    0.1000
46     H46    -0.0012   -6.2995   -2.4780 H        1 ZINC000001705450    0.1400
47     H47     0.4328   -2.4503   -0.2626 H        1 ZINC000001705450    0.1600
@<TRIPOS>BOND
1     1     2     1
2     1     28    1
3     1     29    1
4     1     30    1
5     2     3     1
6     3     27    ar
7     3     4     ar
8     4     5     ar
9     4     31    1
10    5     6     1
11    5     8     ar
12    6     7     1
13    7     32    1
14    7     33    1
15    7     34    1
16    8     26    ar
17    8     9     1
18    9     10    2
19    9     11    1
20    11    12    1
21    11    14    2
22    12    13    1
23    13    35    1
24    13    36    1
25    13    37    1
26    14    15    1
27    14    25    1
28    15    24    ar
29    15    16    ar
30    16    17    ar
31    16    38    1
32    17    18    ar
33    17    39    1
34    18    19    1
35    18    21    ar
36    19    20    1
37    20    40    1
38    20    41    1
39    20    42    1
40    21    22    1
41    21    24    ar
42    22    23    1
43    23    43    1
44    23    44    1
45    23    45    1
46    24    46    1
47    25    26    1
48    26    27    ar
49    27    47    1
@<TRIPOS>SUBSTRUCTURE
1   ZINC000001705450 1     RESIDUE    1   A     ZIN   1
