@<TRIPOS>MOLECULE
ZINC000044351725
74    78    1     0     0
SMALL
USER_CHARGES
@<TRIPOS>ATOM
1      C1     -0.0187    1.5258    0.0104 C.3      1 ZINC000044351725   -0.1500
2      C2      0.0021   -0.0041    0.0020 C.3      1 ZINC000044351725   -0.1400
3      C3      0.7421   -0.5109    1.2415 C.3      1 ZINC000044351725    0.1200
4      N4      0.7619   -1.9757    1.2335 N.am     1 ZINC000044351725   -0.5200
5      C5     -0.2673   -2.6875    1.8359 C.2      1 ZINC000044351725    0.1500
6      C6     -0.2292   -4.0795    1.8164 C.2      1 ZINC000044351725   -0.1000
7      N7     -1.3519   -4.5362    2.4737 N.pl3    1 ZINC000044351725   -0.5000
8      C8     -2.0770   -3.4571    2.8954 C.2      1 ZINC000044351725    0.1500
9      C9     -3.3522   -3.5159    3.6411 C.ar     1 ZINC000044351725   -0.0200
10     C10    -4.0020   -2.3377    4.0124 C.ar     1 ZINC000044351725   -0.0900
11     C11    -5.1920   -2.3996    4.7077 C.ar     1 ZINC000044351725   -0.0800
12     C12    -5.7411   -3.6260    5.0374 C.ar     1 ZINC000044351725   -0.0900
13     C13    -7.0413   -3.6860    5.7970 C.3      1 ZINC000044351725    0.1300
14     O14    -8.1492   -3.7139    4.8588 O.3      1 ZINC000044351725   -0.3600
15     C15    -9.3897   -3.7681    5.3793 C.2      1 ZINC000044351725    0.6500
16     O16    -9.5424   -3.7915    6.5845 O.2      1 ZINC000044351725   -0.5700
17     N17   -10.4621   -3.7965    4.5634 N.am     1 ZINC000044351725   -0.6000
18     C18   -10.2995   -3.7752    3.1018 C.3      1 ZINC000044351725    0.1200
19     C19   -11.1112   -4.9297    2.5048 C.3      1 ZINC000044351725    0.0300
20     N20   -12.4996   -4.8433    2.9767 N.3      1 ZINC000044351725   -0.4900
21     C21   -13.3080   -5.7794    2.3279 C.ar     1 ZINC000044351725    0.1200
22     C22   -12.7596   -6.6349    1.3808 C.ar     1 ZINC000044351725   -0.1700
23     C23   -13.5612   -7.5601    0.7410 C.ar     1 ZINC000044351725   -0.0800
24     C24   -14.9084   -7.6356    1.0416 C.ar     1 ZINC000044351725   -0.1400
25     C25   -15.4588   -6.7845    1.9845 C.ar     1 ZINC000044351725   -0.0100
26     Cl26  -17.1512   -6.8824    2.3584 Cl       1 ZINC000044351725   -0.0600
27     C27   -14.6608   -5.8608    2.6325 C.ar     1 ZINC000044351725   -0.1300
28     C28   -12.5777   -5.0012    4.4351 C.3      1 ZINC000044351725    0.0400
29     C29   -11.8259   -3.8557    5.1111 C.3      1 ZINC000044351725    0.1300
30     C30    -5.1021   -4.7977    4.6723 C.ar     1 ZINC000044351725   -0.0800
31     C31    -3.9146   -4.7498    3.9718 C.ar     1 ZINC000044351725   -0.1100
32     C32    -1.4305   -2.3152    2.5151 C.2      1 ZINC000044351725   -0.1900
33     C33     0.8589   -4.7214    1.1824 C.2      1 ZINC000044351725    0.5900
34     O34     0.9204   -5.9375    1.1485 O.2      1 ZINC000044351725   -0.5200
35     N35     1.8277   -3.9749    0.6152 N.am     1 ZINC000044351725   -0.5500
36     C36     2.9557   -4.6397   -0.0420 C.3      1 ZINC000044351725    0.1100
37     C37     2.6210   -4.8737   -1.5165 C.3      1 ZINC000044351725   -0.1400
38     C38     3.7990   -5.5680   -2.2029 C.3      1 ZINC000044351725   -0.1500
39     C39     1.7753   -2.6322    0.6371 C.2      1 ZINC000044351725    0.7000
40     O40     2.6690   -1.9947    0.1138 O.2      1 ZINC000044351725   -0.5400
41     H41     1.0039    1.9031    0.0027 H        1 ZINC000044351725    0.0600
42     H42    -0.5459    1.8868   -0.8726 H        1 ZINC000044351725    0.0600
43     H43    -0.5289    1.8773    0.9072 H        1 ZINC000044351725    0.0600
44     H44    -1.0205   -0.3814    0.0098 H        1 ZINC000044351725    0.0700
45     H45     0.5123   -0.3556   -0.8948 H        1 ZINC000044351725    0.0700
46     H46     1.7647   -0.1336    1.2338 H        1 ZINC000044351725    0.1000
47     H47     0.2319   -0.1594    2.1383 H        1 ZINC000044351725    0.0900
48     H48    -1.5877   -5.4668    2.6129 H        1 ZINC000044351725    0.4300
49     H49    -3.5741   -1.3798    3.7563 H        1 ZINC000044351725    0.1400
50     H50    -5.6958   -1.4888    4.9956 H        1 ZINC000044351725    0.1300
51     H51    -7.0623   -4.5864    6.4108 H        1 ZINC000044351725    0.0800
52     H52    -7.1291   -2.8079    6.4368 H        1 ZINC000044351725    0.0800
53     H53   -10.6654   -2.8276    2.7065 H        1 ZINC000044351725    0.0800
54     H54    -9.2465   -3.8986    2.8487 H        1 ZINC000044351725    0.1000
55     H55   -11.0919   -4.8636    1.4170 H        1 ZINC000044351725    0.1000
56     H56   -10.6785   -5.8794    2.8196 H        1 ZINC000044351725    0.0500
57     H57   -11.7074   -6.5764    1.1447 H        1 ZINC000044351725    0.1300
58     H58   -13.1349   -8.2253    0.0046 H        1 ZINC000044351725    0.1300
59     H59   -15.5329   -8.3597    0.5396 H        1 ZINC000044351725    0.1300
60     H60   -15.0903   -5.1969    3.3681 H        1 ZINC000044351725    0.1400
61     H61   -13.6219   -4.9869    4.7471 H        1 ZINC000044351725    0.1000
62     H62   -12.1246   -5.9499    4.7229 H        1 ZINC000044351725    0.0500
63     H63   -11.7831   -4.0299    6.1862 H        1 ZINC000044351725    0.1100
64     H64   -12.3361   -2.9137    4.9099 H        1 ZINC000044351725    0.0800
65     H65    -5.5361   -5.7518    4.9327 H        1 ZINC000044351725    0.1300
66     H66    -3.4167   -5.6651    3.6874 H        1 ZINC000044351725    0.1200
67     H67    -1.7595   -1.3044    2.7061 H        1 ZINC000044351725    0.1600
68     H68     3.8426   -4.0107    0.0339 H        1 ZINC000044351725    0.1000
69     H69     3.1464   -5.5968    0.4436 H        1 ZINC000044351725    0.1000
70     H70     1.7341   -5.5027   -1.5924 H        1 ZINC000044351725    0.0700
71     H71     2.4303   -3.9166   -2.0021 H        1 ZINC000044351725    0.0700
72     H72     3.5606   -5.7347   -3.2534 H        1 ZINC000044351725    0.0600
73     H73     4.6859   -4.9390   -2.1270 H        1 ZINC000044351725    0.0600
74     H74     3.9897   -6.5251   -1.7173 H        1 ZINC000044351725    0.0600
@<TRIPOS>BOND
1     1     2     1
2     1     41    1
3     1     42    1
4     1     43    1
5     2     3     1
6     2     44    1
7     2     45    1
8     3     4     1
9     3     46    1
10    3     47    1
11    4     39    am
12    4     5     1
13    5     32    1
14    5     6     2
15    6     7     1
16    6     33    1
17    7     8     1
18    7     48    1
19    8     9     1
20    8     32    2
21    9     31    ar
22    9     10    ar
23    10    11    ar
24    10    49    1
25    11    12    ar
26    11    50    1
27    12    13    1
28    12    30    ar
29    13    14    1
30    13    51    1
31    13    52    1
32    14    15    1
33    15    16    2
34    15    17    am
35    17    29    1
36    17    18    1
37    18    19    1
38    18    53    1
39    18    54    1
40    19    20    1
41    19    55    1
42    19    56    1
43    20    21    1
44    20    28    1
45    21    27    ar
46    21    22    ar
47    22    23    ar
48    22    57    1
49    23    24    ar
50    23    58    1
51    24    25    ar
52    24    59    1
53    25    26    1
54    25    27    ar
55    27    60    1
56    28    29    1
57    28    61    1
58    28    62    1
59    29    63    1
60    29    64    1
61    30    31    ar
62    30    65    1
63    31    66    1
64    32    67    1
65    33    34    2
66    33    35    am
67    35    36    1
68    35    39    am
69    36    37    1
70    36    68    1
71    36    69    1
72    37    38    1
73    37    70    1
74    37    71    1
75    38    72    1
76    38    73    1
77    38    74    1
78    39    40    2
@<TRIPOS>SUBSTRUCTURE
1   ZINC000044351725 1     RESIDUE    1   A     ZIN   1
