@<TRIPOS>MOLECULE
ZINC000003819952
44    47    1     0     0
SMALL
USER_CHARGES
@<TRIPOS>ATOM
1      C1     -0.5218    1.0389   -0.4418 C.3      1 ZINC000003819952   -0.1600
2      C2     -0.3257   -0.4645   -0.2363 C.3      1 ZINC000003819952   -0.1100
3      C3      0.4566   -0.7048    1.0564 C.3      1 ZINC000003819952   -0.0800
4      C4      0.6497   -2.1856    1.2588 C.2      1 ZINC000003819952    0.2100
5      N5      0.1653   -2.9828    0.3704 N.2      1 ZINC000003819952   -0.4000
6      C6      0.2710   -4.3385    0.5620 C.2      1 ZINC000003819952    0.2500
7      N7      0.1056   -5.3383   -0.2590 N.2      1 ZINC000003819952   -0.2400
8      N8      0.3460   -6.5271    0.4497 N.pl3    1 ZINC000003819952   -0.4700
9      C9      0.6588   -6.2032    1.7280 C.2      1 ZINC000003819952    0.1000
10     C10     0.6183   -4.8720    1.8328 C.2      1 ZINC000003819952   -0.2700
11     C11     0.8638   -3.9693    3.0168 C.3      1 ZINC000003819952    0.0300
12     H12    -0.0686   -3.8069    3.5575 H        1 ZINC000003819952    0.1200
13     C13     1.8838   -4.5942    3.9333 C.ar     1 ZINC000003819952   -0.0500
14     C14     3.0712   -5.0789    3.4158 C.ar     1 ZINC000003819952   -0.0900
15     C15     4.0135   -5.6548    4.2501 C.ar     1 ZINC000003819952   -0.1000
16     C16     3.7744   -5.7495    5.6050 C.ar     1 ZINC000003819952   -0.0600
17     C17     2.5780   -5.2620    6.1355 C.ar     1 ZINC000003819952    0.0100
18     C18     2.3229   -5.3569    7.5415 C.1      1 ZINC000003819952    0.2400
19     N19     2.1206   -5.4323    8.6568 N.1      1 ZINC000003819952   -0.3800
20     C20     1.6333   -4.6767    5.2888 C.ar     1 ZINC000003819952   -0.0500
21     Br21    0.0095   -4.0129    5.9949 Br       1 ZINC000003819952   -0.0200
22     C22     1.3982   -2.6343    2.4777 C.3      1 ZINC000003819952    0.0100
23     C23     2.8575   -2.7925    2.1364 C.2      1 ZINC000003819952    0.1700
24     N24     3.3423   -3.3623    1.0699 N.2      1 ZINC000003819952   -0.2600
25     N25     4.6276   -3.3168    1.1083 N.2      1 ZINC000003819952   -0.2900
26     C26     5.0064   -2.7165    2.2007 C.2      1 ZINC000003819952    0.1700
27     C27     6.4279   -2.4569    2.6287 C.3      1 ZINC000003819952   -0.0600
28     O28     3.8971   -2.3667    2.8733 O.3      1 ZINC000003819952   -0.2200
29     H29     0.4508    1.5263   -0.5098 H        1 ZINC000003819952    0.0500
30     H30    -1.0791    1.2101   -1.3628 H        1 ZINC000003819952    0.0600
31     H31    -1.0768    1.4515    0.4007 H        1 ZINC000003819952    0.0500
32     H32    -1.2983   -0.9518   -0.1684 H        1 ZINC000003819952    0.0700
33     H33     0.2293   -0.8770   -1.0789 H        1 ZINC000003819952    0.0700
34     H34     1.4292   -0.2175    0.9884 H        1 ZINC000003819952    0.0900
35     H35    -0.0984   -0.2922    1.8990 H        1 ZINC000003819952    0.1000
36     H36     0.2965   -7.4252    0.0867 H        1 ZINC000003819952    0.4500
37     H37     0.8983   -6.8971    2.5202 H        1 ZINC000003819952    0.1800
38     H38     3.2640   -5.0079    2.3555 H        1 ZINC000003819952    0.1400
39     H39     4.9384   -6.0315    3.8389 H        1 ZINC000003819952    0.1400
40     H40     4.5106   -6.1998    6.2543 H        1 ZINC000003819952    0.1500
41     H41     1.2973   -1.8736    3.2518 H        1 ZINC000003819952    0.1300
42     H42     6.7535   -1.4916    2.2412 H        1 ZINC000003819952    0.1000
43     H43     6.4840   -2.4492    3.7172 H        1 ZINC000003819952    0.0900
44     H44     7.0744   -3.2424    2.2371 H        1 ZINC000003819952    0.1100
@<TRIPOS>BOND
1     1     2     1
2     1     29    1
3     1     30    1
4     1     31    1
5     2     3     1
6     2     32    1
7     2     33    1
8     3     4     1
9     3     34    1
10    3     35    1
11    4     22    1
12    4     5     2
13    5     6     1
14    6     10    1
15    6     7     2
16    7     8     1
17    8     9     1
18    8     36    1
19    9     10    2
20    9     37    1
21    10    11    1
22    11    12    1
23    11    13    1
24    11    22    1
25    13    20    ar
26    13    14    ar
27    14    15    ar
28    14    38    1
29    15    16    ar
30    15    39    1
31    16    17    ar
32    16    40    1
33    17    18    1
34    17    20    ar
35    18    19    3
36    20    21    1
37    22    23    1
38    22    41    1
39    23    28    1
40    23    24    2
41    24    25    1
42    25    26    2
43    26    27    1
44    26    28    1
45    27    42    1
46    27    43    1
47    27    44    1
@<TRIPOS>SUBSTRUCTURE
1   ZINC000003819952 1     RESIDUE    1   A     ZIN   1
