@<TRIPOS>MOLECULE
ZINC000006674397
  36   37    0    0    0
SMALL
USER_CHARGES
NO_NAME
@<TRIPOS>ATOM
    1 C1       -2.0036    -1.1268     1.0328 C.2    1 <0>      -0.1700
    2 C2       -0.7493    -0.7738     1.1678 C.2    1 <0>      -0.1500
    3 C3        0.2851    -1.8000     1.5525 C.3    1 <0>       0.1000
    4 O4        1.4406    -1.6444     0.7263 O.3    1 <0>      -0.3100
    5 C5        2.5136    -2.4298     1.0113 C.ar   1 <0>       0.0800
    6 C6        2.7032    -3.6203     0.3288 C.ar   1 <0>      -0.0700
    7 C7        1.7198    -4.0463    -0.7307 C.3    1 <0>       0.0800
    8 N8        1.9675    -3.2858    -1.9628 N.3    1 <0>      -0.4100
    9 N9        1.1691    -3.7273    -2.9795 N.am   1 <0>      -0.3400
   10 C10       1.3353    -4.8948    -3.6830 C.2    1 <0>       0.2800
   11 N11       0.3959    -4.9865    -4.5683 N.2    1 <0>      -0.2700
   12 N12      -0.4210    -3.8530    -4.4566 N.am   1 <0>      -0.4700
   13 C13       0.0800    -3.0941    -3.4596 C.2    1 <0>       0.4400
   14 S14      -0.5453    -1.5971    -2.9129 S.2    1 <0>      -0.5500
   15 C15       3.7950    -4.4176     0.6195 C.ar   1 <0>      -0.1200
   16 C16       4.6988    -4.0298     1.5906 C.ar   1 <0>      -0.0800
   17 C17       4.5152    -2.8429     2.2759 C.ar   1 <0>      -0.1900
   18 C18       3.4269    -2.0365     1.9853 C.ar   1 <0>       0.1100
   19 O19       3.2449    -0.8689     2.6583 O.3    1 <0>      -0.3000
   20 C20       4.2153    -0.5353     3.6528 C.3    1 <0>       0.0200
   21 H21      -2.2964    -2.1533     1.1972 H      1 <0>       0.0900
   22 H22      -2.7456    -0.3904     0.7615 H      1 <0>       0.1100
   23 H23      -0.4565     0.2527     1.0035 H      1 <0>       0.1200
   24 H24       0.5639    -1.6610     2.5970 H      1 <0>       0.0600
   25 H25      -0.1269    -2.7999     1.4163 H      1 <0>       0.0500
   26 H26       1.8397    -5.1111    -0.9306 H      1 <0>       0.1000
   27 H27       0.7049    -3.8540    -0.3828 H      1 <0>       0.0700
   28 H28       1.8425    -2.2965    -1.8085 H      1 <0>       0.4000
   29 H29       2.1216    -5.6180    -3.5237 H      1 <0>       0.2500
   30 H30      -1.2036    -3.6530    -4.9937 H      1 <0>       0.4700
   31 H31       3.9417    -5.3455     0.0867 H      1 <0>       0.1300
   32 H32       5.5501    -4.6554     1.8149 H      1 <0>       0.1300
   33 H33       5.2225    -2.5425     3.0347 H      1 <0>       0.1400
   34 H34       5.1985    -0.4558     3.1890 H      1 <0>       0.0600
   35 H35       3.9521     0.4176     4.1121 H      1 <0>       0.1000
   36 H36       4.2355    -1.3132     4.4161 H      1 <0>       0.0600
@<TRIPOS>BOND
   1    1    2 2
   2    1   21 1
   3    1   22 1
   4    2    3 1
   5    2   23 1
   6    3    4 1
   7    3   24 1
   8    3   25 1
   9    4    5 1
  10    5   18 ar
  11    5    6 ar
  12    6    7 1
  13    6   15 ar
  14    7    8 1
  15    7   26 1
  16    7   27 1
  17    8    9 1
  18    8   28 1
  19    9   13 am
  20    9   10 1
  21   10   11 2
  22   10   29 1
  23   11   12 1
  24   12   13 am
  25   12   30 1
  26   13   14 2
  27   15   16 ar
  28   15   31 1
  29   16   17 ar
  30   16   32 1
  31   17   18 ar
  32   17   33 1
  33   18   19 1
  34   19   20 1
  35   20   34 1
  36   20   35 1
  37   20   36 1
