@<TRIPOS>MOLECULE
ZINC000004097800
84    87    1     0     0
SMALL
USER_CHARGES
@<TRIPOS>ATOM
1      C1      0.2602    1.3758    1.3759 C.3      1 ZINC000004097800   -0.1500
2      C2      0.2688   -0.1203    1.5563 C.2      1 ZINC000004097800    0.4600
3      O3      1.3028   -0.6926    1.8074 O.2      1 ZINC000004097800   -0.5100
4      O4     -0.8724   -0.8171    1.4380 O.3      1 ZINC000004097800   -0.3500
5      C5     -0.7893   -2.2547    1.6245 C.3      1 ZINC000004097800    0.1500
6      C6      0.1650   -2.8493    0.5868 C.3      1 ZINC000004097800   -0.1800
7      C7     -0.2667   -2.5572    3.0303 C.3      1 ZINC000004097800   -0.1800
8      C8     -2.1576   -2.8631    1.4555 C.2      1 ZINC000004097800   -0.0600
9      C9     -3.2047   -2.0838    1.1774 C.2      1 ZINC000004097800   -0.2200
10     C10    -4.5327   -2.6742    1.0133 C.2      1 ZINC000004097800    0.3500
11     O11    -4.6824   -3.8726    1.1301 O.2      1 ZINC000004097800   -0.4300
12     C12    -5.7151   -1.7942    0.6993 C.3      1 ZINC000004097800    0.1100
13     C13    -5.8660   -1.6650   -0.8178 C.3      1 ZINC000004097800   -0.1500
14     O14    -5.5104   -0.5000    1.2695 O.3      1 ZINC000004097800   -0.5300
15     C15    -6.9837   -2.4156    1.2869 C.3      1 ZINC000004097800   -0.0800
16     H16    -7.1175   -3.4287    0.9076 H        1 ZINC000004097800    0.1100
17     C17    -6.9076   -2.4280    2.8333 C.3      1 ZINC000004097800    0.1100
18     H18    -5.9902   -1.9429    3.1666 H        1 ZINC000004097800    0.0500
19     O19    -6.9543   -3.7723    3.3158 O.3      1 ZINC000004097800   -0.5500
20     C20    -8.1431   -1.6359    3.3390 C.3      1 ZINC000004097800   -0.1400
21     C21    -9.1322   -1.7549    2.1728 C.3      1 ZINC000004097800   -0.0400
22     C22    -9.7609   -3.1496    2.1473 C.3      1 ZINC000004097800   -0.2200
23     C23   -10.1964   -0.6806    2.1064 C.3      1 ZINC000004097800   -0.0600
24     H24    -9.7189    0.2908    1.9773 H        1 ZINC000004097800    0.0900
25     C25   -11.0581   -0.6540    3.3624 C.3      1 ZINC000004097800   -0.0900
26     C26   -11.8009   -1.9535    3.4814 C.2      1 ZINC000004097800   -0.1400
27     C27   -12.1391   -2.6572    2.4392 C.2      1 ZINC000004097800   -0.1000
28     C28   -11.8421   -2.2633    1.0264 C.3      1 ZINC000004097800   -0.0400
29     H29   -11.2296   -3.0483    0.5828 H        1 ZINC000004097800    0.1100
30     C30   -13.1446   -2.1752    0.2194 C.3      1 ZINC000004097800   -0.1700
31     C31   -13.9092   -3.4712    0.3884 C.2      1 ZINC000004097800    0.3300
32     O32   -14.3448   -4.0751   -0.5626 O.2      1 ZINC000004097800   -0.4000
33     C33   -14.1011   -3.9719    1.7883 C.2      1 ZINC000004097800    0.3400
34     O34   -15.1749   -4.3605    2.1819 O.2      1 ZINC000004097800   -0.4000
35     C35   -12.8779   -3.9661    2.6849 C.3      1 ZINC000004097800   -0.0700
36     C36   -11.9716   -5.1483    2.3357 C.3      1 ZINC000004097800   -0.1400
37     C37   -13.3073   -4.0537    4.1508 C.3      1 ZINC000004097800   -0.1400
38     C38   -11.0861   -0.9716    0.8921 C.3      1 ZINC000004097800   -0.0900
39     C39   -12.0767    0.1791    0.7035 C.3      1 ZINC000004097800   -0.1500
40     C40   -10.1963   -1.0667   -0.3337 C.2      1 ZINC000004097800    0.3700
41     O41   -10.4683   -0.4538   -1.3380 O.2      1 ZINC000004097800   -0.4400
42     C42    -8.9560   -1.9459   -0.2771 C.3      1 ZINC000004097800   -0.1600
43     C43    -8.1993   -1.5584    0.9444 C.3      1 ZINC000004097800   -0.0500
44     C44    -7.7805   -0.0898    0.8519 C.3      1 ZINC000004097800   -0.1500
45     H45     1.2703    1.7635    1.5080 H        1 ZINC000004097800    0.1000
46     H46    -0.0942    1.6190    0.3743 H        1 ZINC000004097800    0.1000
47     H47    -0.4017    1.8271    2.1151 H        1 ZINC000004097800    0.1000
48     H48     1.1547   -2.4092    0.7090 H        1 ZINC000004097800    0.0900
49     H49     0.2273   -3.9285    0.7268 H        1 ZINC000004097800    0.0800
50     H50    -0.2073   -2.6338   -0.4147 H        1 ZINC000004097800    0.0700
51     H51    -0.9465   -2.1336    3.7696 H        1 ZINC000004097800    0.0600
52     H52    -0.2043   -3.6364    3.1703 H        1 ZINC000004097800    0.0800
53     H53     0.7230   -2.1172    3.1525 H        1 ZINC000004097800    0.0900
54     H54    -2.2909   -3.9298    1.5594 H        1 ZINC000004097800    0.1400
55     H55    -3.0714   -1.0171    1.0734 H        1 ZINC000004097800    0.1500
56     H56    -5.9216   -2.6582   -1.2632 H        1 ZINC000004097800    0.0700
57     H57    -6.7774   -1.1127   -1.0465 H        1 ZINC000004097800    0.0900
58     H58    -5.0065   -1.1320   -1.2243 H        1 ZINC000004097800    0.0700
59     H59    -5.4063   -0.5058    2.2309 H        1 ZINC000004097800    0.3700
60     H60    -6.9104   -3.8462    4.2790 H        1 ZINC000004097800    0.3800
61     H61    -8.5522   -2.0940    4.2394 H        1 ZINC000004097800    0.0800
62     H62    -7.8843   -0.5926    3.5197 H        1 ZINC000004097800    0.0800
63     H63   -10.5838   -3.1902    2.8609 H        1 ZINC000004097800    0.1100
64     H64   -10.1372   -3.3603    1.1463 H        1 ZINC000004097800    0.0700
65     H65    -9.0094   -3.8918    2.4167 H        1 ZINC000004097800    0.0700
66     H66   -10.4224   -0.5168    4.2371 H        1 ZINC000004097800    0.0800
67     H67   -11.7710    0.1680    3.2974 H        1 ZINC000004097800    0.0800
68     H68   -12.0637   -2.3164    4.4640 H        1 ZINC000004097800    0.1300
69     H69   -13.7470   -1.3446    0.5872 H        1 ZINC000004097800    0.1200
70     H70   -12.9121   -2.0226   -0.8345 H        1 ZINC000004097800    0.1100
71     H71   -11.6556   -5.0690    1.2955 H        1 ZINC000004097800    0.0600
72     H72   -11.0951   -5.1379    2.9835 H        1 ZINC000004097800    0.0900
73     H73   -12.5185   -6.0802    2.4792 H        1 ZINC000004097800    0.0700
74     H74   -13.8665   -4.9755    4.3111 H        1 ZINC000004097800    0.0700
75     H75   -12.4237   -4.0491    4.7891 H        1 ZINC000004097800    0.0800
76     H76   -13.9375   -3.1990    4.3965 H        1 ZINC000004097800    0.0700
77     H77   -12.7395    0.2332    1.5671 H        1 ZINC000004097800    0.0700
78     H78   -11.5298    1.1169    0.6059 H        1 ZINC000004097800    0.0600
79     H79   -12.6663    0.0070   -0.1969 H        1 ZINC000004097800    0.0700
80     H80    -9.2449   -2.9955   -0.2216 H        1 ZINC000004097800    0.1000
81     H81    -8.3365   -1.7743   -1.1573 H        1 ZINC000004097800    0.1000
82     H82    -8.6589    0.5273    0.6625 H        1 ZINC000004097800    0.0400
83     H83    -7.3173    0.2158    1.7900 H        1 ZINC000004097800    0.0700
84     H84    -7.0671    0.0339    0.0372 H        1 ZINC000004097800    0.0800
@<TRIPOS>BOND
1     1     2     1
2     1     45    1
3     1     46    1
4     1     47    1
5     2     3     2
6     2     4     1
7     4     5     1
8     5     6     1
9     5     7     1
10    5     8     1
11    6     48    1
12    6     49    1
13    6     50    1
14    7     51    1
15    7     52    1
16    7     53    1
17    8     9     2
18    8     54    1
19    9     10    1
20    9     55    1
21    10    11    2
22    10    12    1
23    12    13    1
24    12    14    1
25    12    15    1
26    13    56    1
27    13    57    1
28    13    58    1
29    14    59    1
30    15    16    1
31    15    43    1
32    15    17    1
33    17    18    1
34    17    19    1
35    17    20    1
36    19    60    1
37    20    21    1
38    20    61    1
39    20    62    1
40    21    43    1
41    21    22    1
42    21    23    1
43    22    63    1
44    22    64    1
45    22    65    1
46    23    24    1
47    23    38    1
48    23    25    1
49    25    26    1
50    25    66    1
51    25    67    1
52    26    27    2
53    26    68    1
54    27    35    1
55    27    28    1
56    28    29    1
57    28    30    1
58    28    38    1
59    30    31    1
60    30    69    1
61    30    70    1
62    31    32    2
63    31    33    1
64    33    34    2
65    33    35    1
66    35    36    1
67    35    37    1
68    36    71    1
69    36    72    1
70    36    73    1
71    37    74    1
72    37    75    1
73    37    76    1
74    38    39    1
75    38    40    1
76    39    77    1
77    39    78    1
78    39    79    1
79    40    41    2
80    40    42    1
81    42    43    1
82    42    80    1
83    42    81    1
84    43    44    1
85    44    82    1
86    44    83    1
87    44    84    1
@<TRIPOS>SUBSTRUCTURE
1   ZINC000004097800 1     RESIDUE    1   A     ZIN   1
