@<TRIPOS>MOLECULE
ZINC000005174362
27    29    1     0     0
SMALL
USER_CHARGES
@<TRIPOS>ATOM
1      N1      0.5074    0.8867    2.1829 N.2      1 ZINC000005174362   -0.6600
2      C2      0.4502   -0.3508    1.7748 C.2      1 ZINC000005174362    0.4100
3      N3     -0.4235   -1.3144    2.2054 N.am     1 ZINC000005174362   -0.6500
4      C4     -0.3412   -2.5258    1.6812 C.2      1 ZINC000005174362    0.5600
5      O5     -1.0830   -3.4312    2.0138 O.2      1 ZINC000005174362   -0.4700
6      C6      0.7078   -2.7009    0.6695 C.2      1 ZINC000005174362   -0.2200
7      C7      1.0123   -3.8259   -0.0240 C.2      1 ZINC000005174362    0.0600
8      C8      0.1393   -5.0042    0.0675 C.ar     1 ZINC000005174362   -0.0800
9      C9     -1.2603   -4.8420    0.0624 C.ar     1 ZINC000005174362   -0.0400
10     C10    -2.0859   -5.9148    0.1463 C.ar     1 ZINC000005174362   -0.1000
11     C11    -1.5509   -7.2138    0.2398 C.ar     1 ZINC000005174362    0.1500
12     N12    -2.3524   -8.2799    0.3225 N.ar     1 ZINC000005174362   -0.4800
13     C13    -1.8669   -9.4948    0.4096 C.ar     1 ZINC000005174362    0.1400
14     C14    -0.4951   -9.7378    0.4210 C.ar     1 ZINC000005174362   -0.1800
15     C15     0.3819   -8.6941    0.3395 C.ar     1 ZINC000005174362   -0.0500
16     C16    -0.1435   -7.3897    0.2455 C.ar     1 ZINC000005174362   -0.1100
17     C17     0.6979   -6.2738    0.1530 C.ar     1 ZINC000005174362   -0.0600
18     S18     1.4826   -1.1094    0.5506 S.3      1 ZINC000005174362   -0.0300
19     H19     1.1662    1.4914    1.8071 H        1 ZINC000005174362    0.3700
20     H20    -1.0890   -1.1121    2.8815 H        1 ZINC000005174362    0.4300
21     H21     1.8964   -3.8557   -0.6435 H        1 ZINC000005174362    0.1600
22     H22    -1.6814   -3.8501   -0.0089 H        1 ZINC000005174362    0.1300
23     H23    -3.1565   -5.7723    0.1418 H        1 ZINC000005174362    0.1400
24     H24    -2.5489  -10.3297    0.4747 H        1 ZINC000005174362    0.1600
25     H25    -0.1258  -10.7500    0.4945 H        1 ZINC000005174362    0.1400
26     H26     1.4485   -8.8635    0.3472 H        1 ZINC000005174362    0.1400
27     H27     1.7707   -6.3985    0.1527 H        1 ZINC000005174362    0.1400
@<TRIPOS>BOND
1     1     2     2
2     1     19    1
3     2     18    1
4     2     3     1
5     3     4     am
6     3     20    1
7     4     5     2
8     4     6     1
9     6     7     2
10    6     18    1
11    7     8     1
12    7     21    1
13    8     17    ar
14    8     9     ar
15    9     10    ar
16    9     22    1
17    10    11    ar
18    10    23    1
19    11    16    ar
20    11    12    ar
21    12    13    ar
22    13    14    ar
23    13    24    1
24    14    15    ar
25    14    25    1
26    15    16    ar
27    15    26    1
28    16    17    ar
29    17    27    1
@<TRIPOS>SUBSTRUCTURE
1   ZINC000005174362 1     RESIDUE    1   A     ZIN   1
