@<TRIPOS>MOLECULE
ZINC000043067027
59    61    1     0     0
SMALL
USER_CHARGES
@<TRIPOS>ATOM
1      C1      0.1437    1.2929   -0.1029 C.3      1 ZINC000043067027   -0.1500
2      C2      0.1158   -0.2287   -0.2607 C.3      1 ZINC000043067027    0.0600
3      O3     -1.2565   -0.6976   -0.1898 O.3      1 ZINC000043067027   -0.3600
4      C4     -1.4559   -2.0194   -0.3115 C.2      1 ZINC000043067027    0.4700
5      O5     -0.5149   -2.7601   -0.4720 O.2      1 ZINC000043067027   -0.5000
6      C6     -2.8535   -2.5796   -0.2480 C.3      1 ZINC000043067027   -0.1100
7      C7     -2.7886   -4.1071   -0.1907 C.3      1 ZINC000043067027    0.0600
8      H8     -2.1441   -4.4714   -0.9907 H        1 ZINC000043067027    0.1100
9      C9     -4.1729   -4.6724   -0.3688 C.ar     1 ZINC000043067027   -0.1200
10     C10    -4.7350   -4.7043   -1.6293 C.ar     1 ZINC000043067027   -0.0600
11     C11    -6.0149   -5.2240   -1.8106 C.ar     1 ZINC000043067027   -0.0600
12     C12    -6.6191   -5.2586   -3.1652 C.ar     1 ZINC000043067027    0.0300
13     C13    -5.9057   -4.7766   -4.2602 C.ar     1 ZINC000043067027   -0.1800
14     C14    -6.4728   -4.8102   -5.5240 C.ar     1 ZINC000043067027    0.1700
15     O15    -5.7772   -4.3405   -6.5929 O.3      1 ZINC000043067027   -0.3100
16     C16    -6.4224   -4.4057   -7.8663 C.3      1 ZINC000043067027    0.0300
17     C17    -7.7496   -5.3232   -5.6994 C.ar     1 ZINC000043067027   -0.3000
18     C18    -8.4626   -5.8039   -4.6110 C.ar     1 ZINC000043067027    0.1700
19     O19    -9.7131   -6.3062   -4.7870 O.3      1 ZINC000043067027   -0.3100
20     C20   -10.2301   -6.3078   -6.1192 C.3      1 ZINC000043067027    0.0300
21     C21    -7.8988   -5.7784   -3.3456 C.ar     1 ZINC000043067027   -0.1800
22     C22    -6.7254   -5.7116   -0.7155 C.ar     1 ZINC000043067027   -0.0700
23     C23    -6.1597   -5.6775    0.5407 C.ar     1 ZINC000043067027   -0.1200
24     C24    -4.8825   -5.1572    0.7202 C.ar     1 ZINC000043067027    0.1300
25     O25    -4.3462   -5.1337    1.9654 O.3      1 ZINC000043067027   -0.2500
26     C26    -3.0188   -5.0122    2.1212 C.2      1 ZINC000043067027    0.4300
27     N27    -2.4523   -5.3859    3.3104 N.pl3    1 ZINC000043067027   -0.8300
28     C28    -2.2241   -4.5320    1.1358 C.2      1 ZINC000043067027   -0.3800
29     C29    -0.8429   -4.4282    1.3554 C.2      1 ZINC000043067027    0.5500
30     O30    -0.0792   -5.2044    0.8092 O.2      1 ZINC000043067027   -0.5000
31     O31    -0.3593   -3.4676    2.1727 O.3      1 ZINC000043067027   -0.3600
32     C32     1.0577   -3.4202    2.3507 C.3      1 ZINC000043067027    0.0600
33     C33     1.4142   -2.2764    3.3022 C.3      1 ZINC000043067027   -0.1500
34     H34     1.1739    1.6449   -0.1562 H        1 ZINC000043067027    0.0800
35     H35    -0.4388    1.7517   -0.9018 H        1 ZINC000043067027    0.0700
36     H36    -0.2842    1.5660    0.8616 H        1 ZINC000043067027    0.0700
37     H37     0.5437   -0.5019   -1.2253 H        1 ZINC000043067027    0.0700
38     H38     0.6983   -0.6876    0.5382 H        1 ZINC000043067027    0.0700
39     H39    -3.3555   -2.2036    0.6434 H        1 ZINC000043067027    0.1100
40     H40    -3.4086   -2.2726   -1.1344 H        1 ZINC000043067027    0.1100
41     H41    -4.1819   -4.3256   -2.4761 H        1 ZINC000043067027    0.1400
42     H42    -4.9117   -4.3767   -4.1243 H        1 ZINC000043067027    0.1400
43     H43    -5.7597   -3.9998   -8.6306 H        1 ZINC000043067027    0.1000
44     H44    -6.6564   -5.4438   -8.1023 H        1 ZINC000043067027    0.0600
45     H45    -7.3432   -3.8232   -7.8372 H        1 ZINC000043067027    0.0600
46     H46    -8.1896   -5.3480   -6.6854 H        1 ZINC000043067027    0.1400
47     H47   -11.2334   -6.7338   -6.1191 H        1 ZINC000043067027    0.1000
48     H48   -10.2695   -5.2854   -6.4949 H        1 ZINC000043067027    0.0600
49     H49    -9.5816   -6.9055   -6.7598 H        1 ZINC000043067027    0.0600
50     H50    -8.4545   -6.1528   -2.4985 H        1 ZINC000043067027    0.1400
51     H51    -7.7180   -6.1153   -0.8509 H        1 ZINC000043067027    0.1400
52     H52    -6.7109   -6.0550    1.3893 H        1 ZINC000043067027    0.1400
53     H53    -2.9964   -5.8022    3.9972 H        1 ZINC000043067027    0.4100
54     H54    -1.5070   -5.2344    3.4661 H        1 ZINC000043067027    0.4200
55     H55     1.4028   -4.3644    2.7722 H        1 ZINC000043067027    0.0600
56     H56     1.5397   -3.2549    1.3871 H        1 ZINC000043067027    0.0700
57     H57     0.9323   -2.4417    4.2658 H        1 ZINC000043067027    0.0600
58     H58     2.4951   -2.2402    3.4380 H        1 ZINC000043067027    0.0800
59     H59     1.0692   -1.3322    2.8807 H        1 ZINC000043067027    0.0600
@<TRIPOS>BOND
1     1     2     1
2     1     34    1
3     1     35    1
4     1     36    1
5     2     3     1
6     2     37    1
7     2     38    1
8     3     4     1
9     4     5     2
10    4     6     1
11    6     7     1
12    6     39    1
13    6     40    1
14    7     8     1
15    7     28    1
16    7     9     1
17    9     24    ar
18    9     10    ar
19    10    11    ar
20    10    41    1
21    11    12    1
22    11    22    ar
23    12    21    ar
24    12    13    ar
25    13    14    ar
26    13    42    1
27    14    15    1
28    14    17    ar
29    15    16    1
30    16    43    1
31    16    44    1
32    16    45    1
33    17    18    ar
34    17    46    1
35    18    19    1
36    18    21    ar
37    19    20    1
38    20    47    1
39    20    48    1
40    20    49    1
41    21    50    1
42    22    23    ar
43    22    51    1
44    23    24    ar
45    23    52    1
46    24    25    1
47    25    26    1
48    26    27    1
49    26    28    2
50    27    53    1
51    27    54    1
52    28    29    1
53    29    30    2
54    29    31    1
55    31    32    1
56    32    33    1
57    32    55    1
58    32    56    1
59    33    57    1
60    33    58    1
61    33    59    1
@<TRIPOS>SUBSTRUCTURE
1   ZINC000043067027 1     RESIDUE    1   A     ZIN   1
