@<TRIPOS>MOLECULE
ZINC000045388508
  44   46    0    0    0
SMALL
USER_CHARGES
NO_NAME
@<TRIPOS>ATOM
    1 C1       -0.0123     1.8558    -0.8061 C.3    1 <0>       0.0600
    2 O2        0.0754     0.4248    -0.5758 O.3    1 <0>      -0.3700
    3 C3        0.6159    -0.3204    -1.5583 C.2    1 <0>       0.6500
    4 O4        1.0037     0.2105    -2.5802 O.2    1 <0>      -0.5700
    5 N5        0.7268    -1.6552    -1.4083 N.am   1 <0>      -0.7100
    6 C6        1.3150    -2.4660    -2.4773 C.3    1 <0>       0.1400
    7 C7        1.3224    -3.9370    -2.0564 C.3    1 <0>      -0.0700
    8 C8        1.9274    -4.7711    -3.1560 C.2    1 <0>       0.1300
    9 C9        3.2375    -5.0117    -3.3524 C.2    1 <0>      -0.2600
   10 C10       3.2895    -5.8776    -4.5553 C.2    1 <0>       0.0000
   11 N11       2.0613    -6.0511    -4.9281 N.2    1 <0>      -0.1900
   12 N12       1.2567    -5.4279    -4.1339 N.pl3  1 <0>      -0.4000
   13 C13       4.5970    -6.3398    -5.0611 C.2    1 <0>       0.4600
   14 O14       4.7053    -6.9025    -6.1325 O.2    1 <0>      -0.4000
   15 C15       5.7768    -6.0799    -4.1895 C.2    1 <0>       0.1400
   16 N16       6.9802    -6.6696    -4.5126 N.pl3  1 <0>      -0.5800
   17 C17       7.6730    -6.2917    -5.7469 C.3    1 <0>       0.0900
   18 C18       7.5385    -7.6268    -3.6639 C.ar   1 <0>       0.1900
   19 C19       6.8287    -8.0742    -2.5560 C.ar   1 <0>      -0.1800
   20 C20       7.3842    -9.0212    -1.7186 C.ar   1 <0>      -0.0800
   21 C21       8.6454    -9.5244    -1.9812 C.ar   1 <0>      -0.1600
   22 C22       9.3547    -9.0815    -3.0828 C.ar   1 <0>      -0.0800
   23 C23       8.8032    -8.1389    -3.9279 C.ar   1 <0>      -0.1700
   24 C24       5.7157    -5.2899    -3.0960 C.2    1 <0>      -0.1600
   25 C25       4.4803    -4.6168    -2.6678 C.2    1 <0>       0.4700
   26 O26       4.4848    -3.7725    -1.7905 O.2    1 <0>      -0.4200
   27 H27       0.9874     2.2603    -0.9643 H      1 <0>       0.0700
   28 H28      -0.6245     2.0450    -1.6878 H      1 <0>       0.0600
   29 H29      -0.4656     2.3362     0.0610 H      1 <0>       0.1100
   30 H30       0.4173    -2.0789    -0.5925 H      1 <0>       0.4100
   31 H31       0.7251    -2.3514    -3.3867 H      1 <0>       0.0700
   32 H32       2.3371    -2.1361    -2.6632 H      1 <0>       0.0800
   33 H33       1.9123    -4.0517    -1.1470 H      1 <0>       0.1200
   34 H34       0.3003    -4.2669    -1.8705 H      1 <0>       0.1000
   35 H35       0.2914    -5.4244    -4.2292 H      1 <0>       0.4500
   36 H36       8.4106    -5.5196    -5.5277 H      1 <0>       0.0600
   37 H37       8.1743    -7.1650    -6.1642 H      1 <0>       0.0800
   38 H38       6.9497    -5.9092    -6.4671 H      1 <0>       0.0800
   39 H39       5.8440    -7.6814    -2.3501 H      1 <0>       0.1200
   40 H40       6.8334    -9.3691    -0.8572 H      1 <0>       0.1200
   41 H41       9.0776   -10.2647    -1.3243 H      1 <0>       0.1200
   42 H42      10.3393    -9.4766    -3.2848 H      1 <0>       0.1300
   43 H43       9.3575    -7.7937    -4.7881 H      1 <0>       0.1300
   44 H44       6.6120    -5.1470    -2.5106 H      1 <0>       0.1600
@<TRIPOS>BOND
   1    1    2 1
   2    1   27 1
   3    1   28 1
   4    1   29 1
   5    2    3 1
   6    3    4 2
   7    3    5 am
   8    5    6 1
   9    5   30 1
  10    6    7 1
  11    6   31 1
  12    6   32 1
  13    7    8 1
  14    7   33 1
  15    7   34 1
  16    8   12 1
  17    8    9 2
  18    9   25 1
  19    9   10 1
  20   10   11 2
  21   10   13 1
  22   11   12 1
  23   12   35 1
  24   13   14 2
  25   13   15 1
  26   15   16 1
  27   15   24 2
  28   16   17 1
  29   16   18 1
  30   17   36 1
  31   17   37 1
  32   17   38 1
  33   18   23 ar
  34   18   19 ar
  35   19   20 ar
  36   19   39 1
  37   20   21 ar
  38   20   40 1
  39   21   22 ar
  40   21   41 1
  41   22   23 ar
  42   22   42 1
  43   23   43 1
  44   24   25 1
  45   24   44 1
  46   25   26 2
