@<TRIPOS>MOLECULE
ZINC000029044012
  38   41    0    0    0
SMALL
USER_CHARGES
NO_NAME
@<TRIPOS>ATOM
    1 C1       -0.0173     1.4248     0.0099 C.3    1 <0>       0.0200
    2 O2        0.0021    -0.0041     0.0020 O.3    1 <0>      -0.3000
    3 C3        0.6057    -0.6070    -1.0556 C.ar   1 <0>       0.1600
    4 C4        0.6501    -2.0076    -1.1200 C.ar   1 <0>       0.1300
    5 O5        0.0889    -2.7456    -0.1249 O.3    1 <0>      -0.3000
    6 C6        0.1671    -4.1671    -0.2485 C.3    1 <0>       0.0200
    7 C7        1.2503    -2.6363    -2.1712 C.ar   1 <0>      -0.1700
    8 C8        1.8295    -1.8736    -3.1990 C.ar   1 <0>      -0.1100
    9 C9        1.7866    -0.4576    -3.1375 C.ar   1 <0>       0.2000
   10 C10       1.1551     0.1585    -2.0425 C.ar   1 <0>      -0.1800
   11 N11       2.3339     0.2813    -4.1084 N.ar   1 <0>      -0.4600
   12 C12       2.9295    -0.2672    -5.1510 C.ar   1 <0>       0.3100
   13 O13       3.5413     0.2591    -6.2332 O.3    1 <0>      -0.1900
   14 C14       4.0072    -0.7091    -7.0434 C.2    1 <0>       0.0400
   15 C15       3.7257    -1.9151    -6.5359 C.2    1 <0>      -0.2000
   16 C16       3.0093    -1.6708    -5.2774 C.ar   1 <0>      -0.1800
   17 C17       2.4579    -2.4937    -4.2989 C.ar   1 <0>       0.1800
   18 O18       2.5235    -3.8437    -4.3994 O.3    1 <0>      -0.2400
   19 C19       3.5973    -4.4726    -3.8536 C.ar   1 <0>       0.0700
   20 C20       3.7197    -5.8563    -3.9319 C.ar   1 <0>      -0.1000
   21 C21       4.8324    -6.4523    -3.3603 C.ar   1 <0>      -0.1300
   22 C22       5.7768    -5.6594    -2.7359 C.ar   1 <0>       0.0700
   23 N23       5.6308    -4.3499    -2.6790 N.ar   1 <0>      -0.4500
   24 C24       4.5904    -3.7434    -3.2149 C.ar   1 <0>       0.0400
   25 H25       1.0053     1.8021     0.0021 H      1 <0>       0.0600
   26 H26      -0.5445     1.7859    -0.8732 H      1 <0>       0.0600
   27 H27      -0.5275     1.7763     0.9067 H      1 <0>       0.1100
   28 H28      -0.3176    -4.6336     0.6091 H      1 <0>       0.1100
   29 H29      -0.3346    -4.4804    -1.1641 H      1 <0>       0.0600
   30 H30       1.2130    -4.4717    -0.2849 H      1 <0>       0.0600
   31 H31       1.2804    -3.7151    -2.2129 H      1 <0>       0.1500
   32 H32       1.1123     1.2358    -1.9786 H      1 <0>       0.1600
   33 H33       4.5330    -0.5375    -7.9711 H      1 <0>       0.2200
   34 H34       3.9751    -2.8742    -6.9651 H      1 <0>       0.1700
   35 H35       2.9658    -6.4513    -4.4259 H      1 <0>       0.1500
   36 H36       4.9601    -7.5240    -3.4018 H      1 <0>       0.1500
   37 H37       6.6459    -6.1184    -2.2883 H      1 <0>       0.1600
   38 H38       4.5053    -2.6689    -3.1481 H      1 <0>       0.1500
@<TRIPOS>BOND
   1    1    2 1
   2    1   25 1
   3    1   26 1
   4    1   27 1
   5    2    3 1
   6    3   10 ar
   7    3    4 ar
   8    4    5 1
   9    4    7 ar
  10    5    6 1
  11    6   28 1
  12    6   29 1
  13    6   30 1
  14    7    8 ar
  15    7   31 1
  16    8   17 ar
  17    8    9 ar
  18    9   10 ar
  19    9   11 ar
  20   10   32 1
  21   11   12 ar
  22   12   16 ar
  23   12   13 1
  24   13   14 1
  25   14   15 2
  26   14   33 1
  27   15   16 1
  28   15   34 1
  29   16   17 ar
  30   17   18 1
  31   18   19 1
  32   19   24 ar
  33   19   20 ar
  34   20   21 ar
  35   20   35 1
  36   21   22 ar
  37   21   36 1
  38   22   23 ar
  39   22   37 1
  40   23   24 ar
  41   24   38 1
