@<TRIPOS>MOLECULE
ZINC000014946008
  34   36    0    0    0
SMALL
USER_CHARGES
NO_NAME
@<TRIPOS>ATOM
    1 O1        0.3203    -0.3709    -0.3351 O.2    1 <0>      -0.4300
    2 C2        0.1089     0.8238    -0.2936 C.2    1 <0>       0.5400
    3 N3       -1.0971     1.4126    -0.3758 N.am   1 <0>      -0.6800
    4 C4       -0.9672     2.7479    -0.2948 C.2    1 <0>       0.6000
    5 O5       -1.8773     3.5519    -0.3376 O.2    1 <0>      -0.4800
    6 C6        0.4628     3.0756    -0.1444 C.2    1 <0>      -0.2000
    7 C7        1.0532     4.4254    -0.0190 C.ar   1 <0>       0.0700
    8 C8        1.7216     5.0017    -1.1008 C.ar   1 <0>      -0.1100
    9 C9        2.2697     6.2617    -0.9771 C.ar   1 <0>      -0.0700
   10 C10       2.1581     6.9540     0.2156 C.ar   1 <0>      -0.1200
   11 C11       1.4971     6.3884     1.2921 C.ar   1 <0>      -0.0500
   12 C12       0.9396     5.1319     1.1803 C.ar   1 <0>      -0.0200
   13 N13       0.2327     4.5287     2.3325 N.pl3  1 <0>       0.0300
   14 O14       0.1429     5.1422     3.3809 O.2    1 <0>      -0.1600
   15 O15      -0.2592     3.4190     2.2321 O.2    1 <0>      -0.1400
   16 C16       1.1361     1.8817    -0.1372 C.2    1 <0>       0.2000
   17 N17       2.4966     1.7010    -0.0174 N.pl3  1 <0>      -0.6300
   18 C18       3.0086     0.9210     1.0221 C.ar   1 <0>       0.0300
   19 C19       2.1630     0.4491     2.0187 C.ar   1 <0>      -0.0700
   20 C20       2.6702    -0.3227     3.0463 C.ar   1 <0>      -0.1400
   21 Cl21      1.6140    -0.9124     4.2915 Cl     1 <0>      -0.0900
   22 C22       4.0241    -0.6272     3.0831 C.ar   1 <0>       0.2800
   23 O23       4.5225    -1.3874     4.0948 O.3    1 <0>      -0.6700
   24 C24       4.8694    -0.1566     2.0876 C.ar   1 <0>      -0.1500
   25 Cl25      6.5621    -0.5390     2.1342 Cl     1 <0>      -0.0900
   26 C26       4.3630     0.6118     1.0570 C.ar   1 <0>      -0.0800
   27 H27      -1.9390     0.9418    -0.4786 H      1 <0>       0.4300
   28 H28       1.8098     4.4622    -2.0322 H      1 <0>       0.1500
   29 H29       2.7873     6.7085    -1.8130 H      1 <0>       0.1500
   30 H30       2.5889     7.9401     0.3072 H      1 <0>       0.1500
   31 H31       1.4142     6.9339     2.2205 H      1 <0>       0.1600
   32 H32       3.0989     2.1154    -0.6549 H      1 <0>       0.4100
   33 H33       1.1097     0.6859     1.9903 H      1 <0>       0.1100
   34 H34       5.0207     0.9776     0.2824 H      1 <0>       0.1100
@<TRIPOS>BOND
   1    1    2 2
   2    2   16 1
   3    2    3 am
   4    3    4 am
   5    3   27 1
   6    4    5 2
   7    4    6 1
   8    6    7 1
   9    6   16 2
  10    7   12 ar
  11    7    8 ar
  12    8    9 ar
  13    8   28 1
  14    9   10 ar
  15    9   29 1
  16   10   11 ar
  17   10   30 1
  18   11   12 ar
  19   11   31 1
  20   12   13 1
  21   13   14 2
  22   13   15 2
  23   16   17 1
  24   17   18 1
  25   17   32 1
  26   18   26 ar
  27   18   19 ar
  28   19   20 ar
  29   19   33 1
  30   20   21 1
  31   20   22 ar
  32   22   23 1
  33   22   24 ar
  34   24   25 1
  35   24   26 ar
  36   26   34 1
