@<TRIPOS>MOLECULE
ZINC000653858615
62    66    1     0     0
SMALL
USER_CHARGES
@<TRIPOS>ATOM
1      C1      0.2064    1.1160    1.3075 C.3      1 ZINC000653858615    0.1000
2      N2      0.1007   -0.1557    0.5879 N.pl3    1 ZINC000653858615   -0.6900
3      C3     -1.0812   -0.8688    0.6162 C.ar     1 ZINC000653858615    0.6100
4      N4     -2.1090   -0.3768    1.2990 N.ar     1 ZINC000653858615   -0.5800
5      C5     -3.2606   -1.0193    1.3576 C.ar     1 ZINC000653858615    0.2700
6      C6     -3.3827   -2.2418    0.6806 C.ar     1 ZINC000653858615   -0.2900
7      C7     -4.5908   -2.9756    0.7060 C.2      1 ZINC000653858615    0.0400
8      C8     -4.6600   -4.1636    0.0288 C.2      1 ZINC000653858615   -0.1800
9      C9     -5.9116   -4.9559    0.0356 C.ar     1 ZINC000653858615    0.0000
10     C10    -6.7258   -4.9859   -1.0965 C.ar     1 ZINC000653858615   -0.0700
11     C11    -7.8901   -5.7240   -1.0875 C.ar     1 ZINC000653858615   -0.0900
12     C12    -8.2536   -6.4381    0.0480 C.ar     1 ZINC000653858615    0.1200
13     N13    -9.4362   -7.1862    0.0535 N.am     1 ZINC000653858615   -0.4600
14     C14   -10.5975   -6.6047    0.4552 C.2      1 ZINC000653858615    0.1200
15     C15   -11.7536   -7.3085    0.4684 C.2      1 ZINC000653858615   -0.2200
16     C16   -11.7602   -8.6512    0.0650 C.2      1 ZINC000653858615   -0.0200
17     C17   -10.5934   -9.2327   -0.3377 C.2      1 ZINC000653858615   -0.2000
18     C18   -10.5732  -10.6743   -0.7762 C.3      1 ZINC000653858615   -0.0900
19     C19    -9.4122   -8.4725   -0.3443 C.2      1 ZINC000653858615    0.5200
20     O20    -8.3617   -8.9807   -0.7023 O.2      1 ZINC000653858615   -0.5300
21     C21    -7.4448   -6.4111    1.1780 C.ar     1 ZINC000653858615   -0.0900
22     C22    -6.2759   -5.6788    1.1734 C.ar     1 ZINC000653858615   -0.0100
23     Cl23   -5.2654   -5.6457    2.5846 Cl       1 ZINC000653858615   -0.0500
24     C24    -3.4855   -4.6438   -0.7028 C.2      1 ZINC000653858615    0.5500
25     O25    -3.5385   -5.6994   -1.3082 O.2      1 ZINC000653858615   -0.5000
26     N26    -2.3472   -3.9238   -0.7098 N.am     1 ZINC000653858615   -0.5000
27     C27    -1.1814   -4.4177   -1.4468 C.3      1 ZINC000653858615    0.1000
28     C28    -1.2249   -3.8908   -2.8825 C.3      1 ZINC000653858615   -0.1400
29     C29    -0.0074   -4.4066   -3.6522 C.3      1 ZINC000653858615    0.1000
30     F30     1.1934   -4.2265   -2.9574 F        1 ZINC000653858615   -0.1800
31     C31    -0.1897   -5.8252   -4.2215 C.3      1 ZINC000653858615   -0.0200
32     N32     0.4689   -5.3126   -5.4433 N.3      1 ZINC000653858615   -0.4800
33     C33    -0.2112   -5.7985   -6.6513 C.3      1 ZINC000653858615   -0.0100
34     C34     0.0467   -3.9328   -5.1159 C.3      1 ZINC000653858615   -0.0100
35     C35    -2.2685   -2.7322   -0.0341 C.ar     1 ZINC000653858615    0.4700
36     N36    -1.1502   -2.0153   -0.0426 N.ar     1 ZINC000653858615   -0.6000
37     H37     1.2056    1.5293    1.1702 H        1 ZINC000653858615    0.0800
38     H38    -0.5330    1.8161    0.9184 H        1 ZINC000653858615    0.0700
39     H39     0.0251    0.9489    2.3692 H        1 ZINC000653858615    0.0700
40     H40     0.8611   -0.4967    0.0915 H        1 ZINC000653858615    0.4200
41     H41    -4.0912   -0.6124    1.9153 H        1 ZINC000653858615    0.1900
42     H42    -5.4459   -2.6049    1.2515 H        1 ZINC000653858615    0.1500
43     H43    -6.4444   -4.4310   -1.9793 H        1 ZINC000653858615    0.1400
44     H44    -8.5208   -5.7470   -1.9639 H        1 ZINC000653858615    0.1400
45     H45   -10.5976   -5.5708    0.7672 H        1 ZINC000653858615    0.1600
46     H46   -12.6702   -6.8362    0.7898 H        1 ZINC000653858615    0.1500
47     H47   -12.6787   -9.2191    0.0732 H        1 ZINC000653858615    0.1400
48     H48   -11.5784  -11.0897   -0.7054 H        1 ZINC000653858615    0.0700
49     H49   -10.2265  -10.7355   -1.8078 H        1 ZINC000653858615    0.0700
50     H50    -9.9000  -11.2405   -0.1324 H        1 ZINC000653858615    0.0700
51     H51    -7.7297   -6.9671    2.0590 H        1 ZINC000653858615    0.1400
52     H52    -0.2700   -4.0707   -0.9599 H        1 ZINC000653858615    0.1100
53     H53    -1.1944   -5.5075   -1.4592 H        1 ZINC000653858615    0.1000
54     H54    -2.1363   -4.2377   -3.3694 H        1 ZINC000653858615    0.0900
55     H55    -1.2119   -2.8009   -2.8701 H        1 ZINC000653858615    0.0800
56     H56     0.3882   -6.5863   -3.6975 H        1 ZINC000653858615    0.1000
57     H57    -1.2318   -6.1081   -4.3702 H        1 ZINC000653858615    0.0900
58     H58    -1.2477   -5.4613   -6.6453 H        1 ZINC000653858615    0.0400
59     H59     0.2933   -5.4068   -7.5347 H        1 ZINC000653858615    0.0800
60     H60    -0.1837   -6.8880   -6.6704 H        1 ZINC000653858615    0.0700
61     H61    -0.9263   -3.6622   -5.5261 H        1 ZINC000653858615    0.0900
62     H62     0.8135   -3.1820   -5.3063 H        1 ZINC000653858615    0.1000
@<TRIPOS>BOND
1     1     2     1
2     1     37    1
3     1     38    1
4     1     39    1
5     2     3     1
6     2     40    1
7     3     36    ar
8     3     4     ar
9     4     5     ar
10    5     6     ar
11    5     41    1
12    6     35    ar
13    6     7     1
14    7     8     2
15    7     42    1
16    8     9     1
17    8     24    1
18    9     22    ar
19    9     10    ar
20    10    11    ar
21    10    43    1
22    11    12    ar
23    11    44    1
24    12    13    1
25    12    21    ar
26    13    19    am
27    13    14    1
28    14    15    2
29    14    45    1
30    15    16    1
31    15    46    1
32    16    17    2
33    16    47    1
34    17    18    1
35    17    19    1
36    18    48    1
37    18    49    1
38    18    50    1
39    19    20    2
40    21    22    ar
41    21    51    1
42    22    23    1
43    24    25    2
44    24    26    am
45    26    27    1
46    26    35    1
47    27    28    1
48    27    52    1
49    27    53    1
50    28    29    1
51    28    54    1
52    28    55    1
53    29    34    1
54    29    30    1
55    29    31    1
56    31    32    1
57    31    56    1
58    31    57    1
59    32    33    1
60    32    34    1
61    33    58    1
62    33    59    1
63    33    60    1
64    34    61    1
65    34    62    1
66    35    36    ar
@<TRIPOS>SUBSTRUCTURE
1   ZINC000653858615 1     RESIDUE    1   A     ZIN   1
