@<TRIPOS>MOLECULE
ZINC000003933041
89    94    1     0     0
SMALL
USER_CHARGES
@<TRIPOS>ATOM
1      C1      0.9013    3.4060   -1.4138 C.3      1 ZINC000003933041   -0.1200
2      C2      1.2967    1.9882   -1.7372 C.2      1 ZINC000003933041   -0.1300
3      C3      2.7305    1.6625   -2.0676 C.3      1 ZINC000003933041   -0.1200
4      C4      0.3941    1.0389   -1.7311 C.2      1 ZINC000003933041   -0.1700
5      C5     -1.0398    1.3646   -1.4007 C.3      1 ZINC000003933041   -0.1000
6      C6     -1.9470    0.8792   -2.5331 C.3      1 ZINC000003933041   -0.1000
7      C7     -3.4045    1.2103   -2.1972 C.3      1 ZINC000003933041    0.1600
8      C8     -3.7427    0.6246   -0.8245 C.3      1 ZINC000003933041   -0.1700
9      C9     -4.2989    0.5888   -3.2361 C.2      1 ZINC000003933041   -0.2000
10     C10    -5.4438    1.1731   -3.5807 C.2      1 ZINC000003933041   -0.0700
11     C11    -5.8077    2.4448   -2.9215 C.ar     1 ZINC000003933041   -0.2100
12     C12    -7.0986    2.9629   -3.0060 C.ar     1 ZINC000003933041    0.2500
13     O13    -8.0610    2.2931   -3.6874 O.3      1 ZINC000003933041   -0.4800
14     C14    -7.3858    4.1859   -2.3895 C.ar     1 ZINC000003933041   -0.2900
15     C15    -6.4028    4.8598   -1.6405 C.ar     1 ZINC000003933041    0.2500
16     O16    -6.6713    6.0125   -0.9954 O.3      1 ZINC000003933041   -0.2700
17     C17    -7.7474    6.8617   -1.3078 C.3      1 ZINC000003933041    0.1600
18     C18    -8.8510    6.1891   -2.0573 C.2      1 ZINC000003933041   -0.2400
19     C19    -9.9412    6.9112   -2.3612 C.2      1 ZINC000003933041   -0.0100
20     C20    -9.8032    8.3599   -1.8900 C.3      1 ZINC000003933041   -0.1300
21     H21   -10.6729    8.9653   -2.1325 H        1 ZINC000003933041    0.1300
22     C22    -8.5165    8.8862   -2.5560 C.3      1 ZINC000003933041   -0.1100
23     C23    -7.2855    8.1541   -2.0318 C.3      1 ZINC000003933041   -0.1100
24     H24    -6.5689    7.9241   -2.8319 H        1 ZINC000003933041    0.1200
25     C25    -6.6322    8.9167   -0.8588 C.3      1 ZINC000003933041    0.1000
26     C26    -5.1419    8.5422   -0.7671 C.3      1 ZINC000003933041   -0.1600
27     C27    -6.7289   10.4339   -0.9872 C.3      1 ZINC000003933041   -0.1500
28     O28    -7.2897    8.4821    0.3439 O.3      1 ZINC000003933041   -0.3300
29     C29    -8.2896    7.4935    0.0070 C.3      1 ZINC000003933041    0.1000
30     C30    -8.5427    6.4715    1.1156 C.3      1 ZINC000003933041   -0.0500
31     C31    -9.1653    7.1611    2.3021 C.2      1 ZINC000003933041   -0.1800
32     C32   -10.3793    6.8034    2.7191 C.2      1 ZINC000003933041   -0.1400
33     C33   -11.0528    7.5730    3.8260 C.3      1 ZINC000003933041   -0.1000
34     C34   -11.0601    5.6605    2.1008 C.2      1 ZINC000003933041    0.5200
35     O35   -10.8386    4.5259    2.5023 O.co2    1 ZINC000003933041   -0.6900
36     O36   -11.8496    5.8417    1.1835 O.co2    1 ZINC000003933041   -0.6900
37     C37    -9.5305    8.2860   -0.3942 C.2      1 ZINC000003933041    0.3600
38     O38   -10.2459    8.8195    0.4201 O.2      1 ZINC000003933041   -0.3800
39     C39    -8.7313    4.7883   -2.4989 C.2      1 ZINC000003933041    0.4500
40     O40    -9.6969    4.1658   -2.9258 O.2      1 ZINC000003933041   -0.4300
41     C41    -5.1255    4.3184   -1.5552 C.ar     1 ZINC000003933041   -0.1600
42     C42    -4.0668    5.0255   -0.7487 C.3      1 ZINC000003933041   -0.0400
43     C43    -4.2009    4.6416    0.7024 C.2      1 ZINC000003933041   -0.1500
44     C44    -3.1799    4.1254    1.3404 C.2      1 ZINC000003933041   -0.1400
45     C45    -1.8385    4.0264    0.6608 C.3      1 ZINC000003933041   -0.1200
46     C46    -3.3467    3.6306    2.7541 C.3      1 ZINC000003933041   -0.1200
47     C47    -4.8193    3.1330   -2.1999 C.ar     1 ZINC000003933041    0.2200
48     O48    -3.5630    2.6259   -2.1610 O.3      1 ZINC000003933041   -0.2900
49     H49     1.7793    4.0496   -1.4687 H        1 ZINC000003933041    0.0600
50     H50     0.1550    3.7476   -2.1311 H        1 ZINC000003933041    0.0700
51     H51     0.4837    3.4463   -0.4078 H        1 ZINC000003933041    0.0700
52     H52     3.2660    1.4100   -1.1524 H        1 ZINC000003933041    0.0600
53     H53     2.7621    0.8152   -2.7526 H        1 ZINC000003933041    0.0600
54     H54     3.2006    2.5268   -2.5369 H        1 ZINC000003933041    0.0600
55     H55     0.6774    0.0228   -1.9628 H        1 ZINC000003933041    0.1100
56     H56    -1.3205    0.8678   -0.4719 H        1 ZINC000003933041    0.0800
57     H57    -1.1498    2.4427   -1.2837 H        1 ZINC000003933041    0.0900
58     H58    -1.6663    1.3760   -3.4618 H        1 ZINC000003933041    0.0700
59     H59    -1.8370   -0.1989   -2.6501 H        1 ZINC000003933041    0.0800
60     H60    -3.0838    1.0581   -0.0722 H        1 ZINC000003933041    0.0800
61     H61    -4.7788    0.8551   -0.5763 H        1 ZINC000003933041    0.0600
62     H62    -3.6065   -0.4566   -0.8473 H        1 ZINC000003933041    0.0700
63     H63    -4.0073   -0.3384   -3.7105 H        1 ZINC000003933041    0.1300
64     H64    -6.0906    0.7285   -4.3233 H        1 ZINC000003933041    0.1400
65     H65    -8.5619    1.6668   -3.1470 H        1 ZINC000003933041    0.4000
66     H66   -10.8032    6.5151   -2.8732 H        1 ZINC000003933041    0.1600
67     H67    -8.6043    8.6420   -3.6368 H        1 ZINC000003933041    0.0800
68     H68    -8.4836    9.9563   -2.5023 H        1 ZINC000003933041    0.1000
69     H69    -4.6704    8.6870   -1.7392 H        1 ZINC000003933041    0.0600
70     H70    -4.6527    9.1765   -0.0279 H        1 ZINC000003933041    0.0600
71     H71    -5.0473    7.4979   -0.4694 H        1 ZINC000003933041    0.0800
72     H72    -7.7774   10.7294   -1.0237 H        1 ZINC000003933041    0.0600
73     H73    -6.2490   10.9026   -0.1281 H        1 ZINC000003933041    0.0700
74     H74    -6.2292   10.7537   -1.9017 H        1 ZINC000003933041    0.0700
75     H75    -9.2178    5.6980    0.7494 H        1 ZINC000003933041    0.0900
76     H76    -7.5977    6.0175    1.4138 H        1 ZINC000003933041    0.0800
77     H77    -8.6276    7.9452    2.8144 H        1 ZINC000003933041    0.1000
78     H78   -11.6388    8.3865    3.3984 H        1 ZINC000003933041    0.0600
79     H79   -11.7100    6.9063    4.3843 H        1 ZINC000003933041    0.0500
80     H80   -10.2968    7.9827    4.4958 H        1 ZINC000003933041    0.0500
81     H81    -3.0804    4.7365   -1.1113 H        1 ZINC000003933041    0.0900
82     H82    -4.1906    6.1034   -0.8523 H        1 ZINC000003933041    0.0900
83     H83    -5.1388    4.7921    1.2163 H        1 ZINC000003933041    0.1100
84     H84    -1.3066    4.9719    0.7672 H        1 ZINC000003933041    0.0600
85     H85    -1.2561    3.2281    1.1208 H        1 ZINC000003933041    0.0600
86     H86    -1.9826    3.8077   -0.3973 H        1 ZINC000003933041    0.0800
87     H87    -3.6357    2.5797    2.7395 H        1 ZINC000003933041    0.0600
88     H88    -2.4046    3.7409    3.2912 H        1 ZINC000003933041    0.0600
89     H89    -4.1203    4.2133    3.2541 H        1 ZINC000003933041    0.0600
@<TRIPOS>BOND
1     1     2     1
2     1     49    1
3     1     50    1
4     1     51    1
5     2     3     1
6     2     4     2
7     3     52    1
8     3     53    1
9     3     54    1
10    4     5     1
11    4     55    1
12    5     6     1
13    5     56    1
14    5     57    1
15    6     7     1
16    6     58    1
17    6     59    1
18    7     48    1
19    7     8     1
20    7     9     1
21    8     60    1
22    8     61    1
23    8     62    1
24    9     10    2
25    9     63    1
26    10    11    1
27    10    64    1
28    11    47    ar
29    11    12    ar
30    12    13    1
31    12    14    ar
32    13    65    1
33    14    39    1
34    14    15    ar
35    15    16    1
36    15    41    ar
37    16    17    1
38    17    23    1
39    17    29    1
40    17    18    1
41    18    19    2
42    18    39    1
43    19    20    1
44    19    66    1
45    20    21    1
46    20    37    1
47    20    22    1
48    22    23    1
49    22    67    1
50    22    68    1
51    23    24    1
52    23    25    1
53    25    26    1
54    25    27    1
55    25    28    1
56    26    69    1
57    26    70    1
58    26    71    1
59    27    72    1
60    27    73    1
61    27    74    1
62    28    29    1
63    29    30    1
64    29    37    1
65    30    31    1
66    30    75    1
67    30    76    1
68    31    32    2
69    31    77    1
70    32    33    1
71    32    34    1
72    33    78    1
73    33    79    1
74    33    80    1
75    34    35    ar
76    34    36    ar
77    37    38    2
78    39    40    2
79    41    42    1
80    41    47    ar
81    42    43    1
82    42    81    1
83    42    82    1
84    43    44    2
85    43    83    1
86    44    45    1
87    44    46    1
88    45    84    1
89    45    85    1
90    45    86    1
91    46    87    1
92    46    88    1
93    46    89    1
94    47    48    1
@<TRIPOS>SUBSTRUCTURE
1   ZINC000003933041 1     RESIDUE    1   A     ZIN   1
