@<TRIPOS>MOLECULE
ZINC000045337966
  41   43    0    0    0
SMALL
USER_CHARGES
NO_NAME
@<TRIPOS>ATOM
    1 C1       -0.0187     1.5258     0.0104 C.3    1 <0>      -0.1700
    2 C2        0.0021    -0.0041     0.0020 C.3    1 <0>       0.1700
    3 C3        0.7421    -0.5109     1.2415 C.3    1 <0>      -0.1700
    4 C4       -1.4333    -0.5336     0.0129 C.3    1 <0>      -0.1600
    5 N5        0.6878    -0.4765    -1.2033 N.pl3  1 <0>      -0.4000
    6 N6        0.1070    -1.2611    -2.1544 N.3    1 <0>      -0.4000
    7 C7        1.1193    -1.5154    -3.1979 C.3    1 <0>       0.1800
    8 H8        1.3243    -2.5830    -3.2774 H      1 <0>       0.1100
    9 C9        0.6567    -0.9693    -4.5241 C.ar   1 <0>      -0.0800
   10 C10      -0.0183     0.2360    -4.5771 C.ar   1 <0>      -0.0900
   11 C11      -0.4441     0.7398    -5.7925 C.ar   1 <0>      -0.1000
   12 C12      -0.1958     0.0395    -6.9569 C.ar   1 <0>      -0.1300
   13 C13       0.4815    -1.1704    -6.9063 C.ar   1 <0>       0.1200
   14 O14       0.7274    -1.8611    -8.0506 O.3    1 <0>      -0.4900
   15 C15       0.9125    -1.6709    -5.6866 C.ar   1 <0>      -0.1500
   16 C16       2.3445    -0.7782    -2.7206 C.ar   1 <0>      -0.3300
   17 C17       3.6232    -0.6095    -3.2220 C.ar   1 <0>       0.5300
   18 N18       3.9949    -1.1934    -4.4231 N.pl3  1 <0>      -0.7800
   19 N19       4.4910     0.1275    -2.5255 N.ar   1 <0>      -0.5300
   20 C20       4.1352     0.6816    -1.3845 C.ar   1 <0>       0.4400
   21 N21       2.9270     0.5411    -0.8792 N.ar   1 <0>      -0.5600
   22 H22       2.7080     0.9673    -0.0358 H      1 <0>       0.4400
   23 C23       1.9986    -0.1758    -1.5158 C.ar   1 <0>       0.4500
   24 H24       1.0039     1.9031     0.0027 H      1 <0>       0.0500
   25 H25      -0.5459     1.8868    -0.8726 H      1 <0>       0.0800
   26 H26      -0.5289     1.8773     0.9072 H      1 <0>       0.1000
   27 H27       0.2319    -0.1594     2.1383 H      1 <0>       0.1000
   28 H28       0.7568    -1.6008     1.2356 H      1 <0>       0.0800
   29 H29       1.7647    -0.1336     1.2338 H      1 <0>       0.0500
   30 H30      -1.9605    -0.1726    -0.8702 H      1 <0>       0.0800
   31 H31      -1.4185    -1.6235     0.0069 H      1 <0>       0.0700
   32 H32      -1.9435    -0.1821     0.9097 H      1 <0>       0.0900
   33 H33      -0.2263    -2.1259    -1.7555 H      1 <0>       0.3700
   34 H34      -0.2137     0.7849    -3.6678 H      1 <0>       0.1200
   35 H35      -0.9716     1.6815    -5.8313 H      1 <0>       0.1300
   36 H36      -0.5289     0.4332    -7.9058 H      1 <0>       0.1400
   37 H37       1.5668    -1.6348    -8.4740 H      1 <0>       0.4000
   38 H38       1.4399    -2.6124    -5.6446 H      1 <0>       0.1300
   39 H39       3.3560    -1.7268    -4.9214 H      1 <0>       0.4300
   40 H40       4.8939    -1.0686    -4.7654 H      1 <0>       0.4300
   41 H41       4.8602     1.2720    -0.8440 H      1 <0>       0.2500
@<TRIPOS>BOND
   1    1    2 1
   2    1   24 1
   3    1   25 1
   4    1   26 1
   5    2    3 1
   6    2    4 1
   7    2    5 1
   8    3   27 1
   9    3   28 1
  10    3   29 1
  11    4   30 1
  12    4   31 1
  13    4   32 1
  14    5   23 1
  15    5    6 1
  16    6    7 1
  17    6   33 1
  18    7    8 1
  19    7    9 1
  20    7   16 1
  21    9   15 ar
  22    9   10 ar
  23   10   11 ar
  24   10   34 1
  25   11   12 ar
  26   11   35 1
  27   12   13 ar
  28   12   36 1
  29   13   14 1
  30   13   15 ar
  31   14   37 1
  32   15   38 1
  33   16   23 ar
  34   16   17 ar
  35   17   18 1
  36   17   19 ar
  37   18   39 1
  38   18   40 1
  39   19   20 ar
  40   20   21 ar
  41   20   41 1
  42   21   22 1
  43   21   23 ar
