@<TRIPOS>MOLECULE
ZINC000000242740
37    39    1     0     0
SMALL
USER_CHARGES
@<TRIPOS>ATOM
1      C1     -0.0184    1.5028    0.0103 C.3      1 ZINC000000242740   -0.1300
2      C2      0.0021   -0.0041    0.0020 C.ar     1 ZINC000000242740   -0.0300
3      C3      0.0057   -0.6887   -1.1989 C.ar     1 ZINC000000242740   -0.1400
4      C4      0.0245   -2.0709   -1.2065 C.ar     1 ZINC000000242740   -0.0200
5      C5      0.0400   -2.7685   -0.0132 C.ar     1 ZINC000000242740   -0.6800
6      S6      0.0633   -4.5303   -0.0229 S.o2     1 ZINC000000242740    2.7200
7      O7     -0.4690   -4.9455    1.2275 O.2      1 ZINC000000242740   -0.9400
8      O8     -0.4824   -4.9319   -1.2719 O.2      1 ZINC000000242740   -0.9500
9      N9      1.6514   -4.9995   -0.0340 N.am     1 ZINC000000242740   -0.9700
10     N10     2.5007   -4.6218    1.0143 N.2      1 ZINC000000242740   -0.2400
11     C11     3.7454   -4.9895    1.0057 C.2      1 ZINC000000242740    0.1700
12     C12     4.6387   -4.5924    2.1082 C.2      1 ZINC000000242740   -0.1500
13     C13     5.9577   -4.8946    2.2337 C.2      1 ZINC000000242740    0.1100
14     N14     6.4466   -4.3511    3.3869 N.pl3    1 ZINC000000242740   -0.5900
15     C15     5.4495   -3.6717    4.0533 C.ar     1 ZINC000000242740    0.0900
16     C16     5.4181   -2.9563    5.2461 C.ar     1 ZINC000000242740   -0.1300
17     C17     4.2434   -2.3720    5.6664 C.ar     1 ZINC000000242740   -0.1000
18     C18     3.0854   -2.4890    4.9108 C.ar     1 ZINC000000242740   -0.1400
19     C19     3.0955   -3.1930    3.7270 C.ar     1 ZINC000000242740   -0.0600
20     C20     4.2776   -3.7848    3.2864 C.ar     1 ZINC000000242740   -0.0800
21     C21     0.0378   -2.0839    1.1877 C.ar     1 ZINC000000242740    0.0000
22     C22     0.0229   -0.7016    1.1953 C.ar     1 ZINC000000242740   -0.1400
23     H23     1.0042    1.8801    0.0026 H        1 ZINC000000242740    0.0800
24     H24    -0.5455    1.8639   -0.8728 H        1 ZINC000000242740    0.0700
25     H25    -0.5286    1.8543    0.9071 H        1 ZINC000000242740    0.0700
26     H26    -0.0064   -0.1436   -2.1312 H        1 ZINC000000242740    0.1300
27     H27     0.0266   -2.6057   -2.1448 H        1 ZINC000000242740    0.1400
28     H28     1.9937   -5.5357   -0.7662 H        1 ZINC000000242740    0.4000
29     H29     4.1264   -5.5866    0.1904 H        1 ZINC000000242740    0.1300
30     H30     6.5320   -5.4770    1.5284 H        1 ZINC000000242740    0.1800
31     H31     7.3634   -4.4320    3.6932 H        1 ZINC000000242740    0.4200
32     H32     6.3135   -2.8594    5.8421 H        1 ZINC000000242740    0.1200
33     H33     4.2234   -1.8179    6.5932 H        1 ZINC000000242740    0.1300
34     H34     2.1716   -2.0261    5.2528 H        1 ZINC000000242740    0.1200
35     H35     2.1926   -3.2827    3.1413 H        1 ZINC000000242740    0.1300
36     H36     0.0503   -2.6289    2.1200 H        1 ZINC000000242740    0.1400
37     H37     0.0211   -0.1667    2.1335 H        1 ZINC000000242740    0.1300
@<TRIPOS>BOND
1     1     2     1
2     1     23    1
3     1     24    1
4     1     25    1
5     2     22    ar
6     2     3     ar
7     3     4     ar
8     3     26    1
9     4     5     ar
10    4     27    1
11    5     6     1
12    5     21    ar
13    6     7     2
14    6     8     2
15    6     9     am
16    9     10    1
17    9     28    1
18    10    11    2
19    11    12    1
20    11    29    1
21    12    20    1
22    12    13    2
23    13    14    1
24    13    30    1
25    14    15    1
26    14    31    1
27    15    20    ar
28    15    16    ar
29    16    17    ar
30    16    32    1
31    17    18    ar
32    17    33    1
33    18    19    ar
34    18    34    1
35    19    20    ar
36    19    35    1
37    21    22    ar
38    21    36    1
39    22    37    1
@<TRIPOS>SUBSTRUCTURE
1   ZINC000000242740 1     RESIDUE    1   A     ZIN   1
