@<TRIPOS>MOLECULE
ZINC000002186121
52    57    1     0     0
SMALL
USER_CHARGES
@<TRIPOS>ATOM
1      C1     -0.3892    1.3479    0.3725 C.3      1 ZINC000002186121   -0.1600
2      C2     -0.3437   -0.1709    0.1931 C.3      1 ZINC000002186121   -0.1000
3      C3      0.4484   -0.5116   -1.0707 C.3      1 ZINC000002186121   -0.1600
4      H4      1.4315   -0.0436   -1.0205 H        1 ZINC000002186121    0.1600
5      S5     -0.4392    0.1034   -2.5233 S.3      1 ZINC000002186121    0.1100
6      C6      0.7415   -0.2598   -3.7798 C.ar     1 ZINC000002186121    0.2500
7      N7      0.5154    0.1467   -5.0219 N.ar     1 ZINC000002186121   -0.4800
8      C8      1.4078   -0.1280   -5.9687 C.ar     1 ZINC000002186121    0.3700
9      C9      2.5666   -0.8459   -5.6088 C.ar     1 ZINC000002186121    0.0000
10     N10     2.7335   -1.2242   -4.3498 N.ar     1 ZINC000002186121   -0.1200
11     N11     1.8444   -0.9313   -3.4636 N.ar     1 ZINC000002186121   -0.3100
12     C12     3.3582   -0.9993   -6.8416 C.ar     1 ZINC000002186121   -0.0800
13     C13     2.6297   -0.3671   -7.8608 C.ar     1 ZINC000002186121    0.1500
14     C14     3.1403   -0.3524   -9.1545 C.ar     1 ZINC000002186121   -0.1300
15     C15     4.3503   -0.9545   -9.4261 C.ar     1 ZINC000002186121   -0.0700
16     C16     5.0688   -1.5791   -8.4183 C.ar     1 ZINC000002186121   -0.1400
17     C17     4.5798   -1.6032   -7.1298 C.ar     1 ZINC000002186121   -0.0400
18     N18     1.4656    0.1467   -7.3126 N.pl3    1 ZINC000002186121   -0.5800
19     C19     0.6085   -2.0064   -1.1755 C.2      1 ZINC000002186121    0.5400
20     O20    -0.1941   -2.6595   -1.8089 O.2      1 ZINC000002186121   -0.4900
21     N21     1.6433   -2.6177   -0.5655 N.am     1 ZINC000002186121   -0.5000
22     C22     2.6564   -1.8403    0.0109 C.ar     1 ZINC000002186121    0.1500
23     C23     3.0823   -0.6766   -0.6095 C.ar     1 ZINC000002186121   -0.1400
24     C24     4.0854    0.0851   -0.0369 C.ar     1 ZINC000002186121   -0.0900
25     C25     4.6679   -0.3067    1.1537 C.ar     1 ZINC000002186121   -0.1100
26     C26     4.2496   -1.4670    1.7823 C.ar     1 ZINC000002186121   -0.0600
27     C27     3.2468   -2.2324    1.2145 C.ar     1 ZINC000002186121   -0.1300
28     S28     2.6931   -3.7133    1.9987 S.3      1 ZINC000002186121    0.0200
29     C29     2.1585   -4.6730    0.6174 C.ar     1 ZINC000002186121   -0.1300
30     C30     2.2079   -6.0549    0.6583 C.ar     1 ZINC000002186121   -0.0700
31     C31     1.7825   -6.7903   -0.4347 C.ar     1 ZINC000002186121   -0.1100
32     C32     1.3093   -6.1457   -1.5620 C.ar     1 ZINC000002186121   -0.1000
33     C33     1.2585   -4.7638   -1.6088 C.ar     1 ZINC000002186121   -0.1000
34     C34     1.6808   -4.0175   -0.5160 C.ar     1 ZINC000002186121    0.1500
35     H35     0.6188    1.7233    0.5489 H        1 ZINC000002186121    0.0600
36     H36    -0.7959    1.8081   -0.5280 H        1 ZINC000002186121    0.0700
37     H37    -1.0230    1.5943    1.2245 H        1 ZINC000002186121    0.0700
38     H38     0.1397   -0.6246    1.0583 H        1 ZINC000002186121    0.0900
39     H39    -1.3591   -0.5564    0.1005 H        1 ZINC000002186121    0.0800
40     H40     2.5882    0.1308   -9.9470 H        1 ZINC000002186121    0.1400
41     H41     4.7417   -0.9398  -10.4326 H        1 ZINC000002186121    0.1400
42     H42     6.0153   -2.0480   -8.6435 H        1 ZINC000002186121    0.1400
43     H43     5.1415   -2.0902   -6.3464 H        1 ZINC000002186121    0.1400
44     H44     0.7875    0.6321   -7.8081 H        1 ZINC000002186121    0.4300
45     H45     2.6315   -0.3645   -1.5400 H        1 ZINC000002186121    0.1500
46     H46     4.4150    0.9915   -0.5229 H        1 ZINC000002186121    0.1300
47     H47     5.4508    0.2930    1.5940 H        1 ZINC000002186121    0.1400
48     H48     4.7045   -1.7736    2.7126 H        1 ZINC000002186121    0.1400
49     H49     2.5772   -6.5582    1.5396 H        1 ZINC000002186121    0.1400
50     H50     1.8202   -7.8693   -0.4064 H        1 ZINC000002186121    0.1300
51     H51     0.9775   -6.7241   -2.4116 H        1 ZINC000002186121    0.1300
52     H52     0.8873   -4.2666   -2.4928 H        1 ZINC000002186121    0.1400
@<TRIPOS>BOND
1     1     2     1
2     1     35    1
3     1     36    1
4     1     37    1
5     2     3     1
6     2     38    1
7     2     39    1
8     3     4     1
9     3     5     1
10    3     19    1
11    5     6     1
12    6     11    ar
13    6     7     ar
14    7     8     ar
15    8     18    1
16    8     9     ar
17    9     10    ar
18    9     12    1
19    10    11    ar
20    12    17    ar
21    12    13    ar
22    13    14    ar
23    13    18    1
24    14    15    ar
25    14    40    1
26    15    16    ar
27    15    41    1
28    16    17    ar
29    16    42    1
30    17    43    1
31    18    44    1
32    19    20    2
33    19    21    am
34    21    34    1
35    21    22    1
36    22    27    ar
37    22    23    ar
38    23    24    ar
39    23    45    1
40    24    25    ar
41    24    46    1
42    25    26    ar
43    25    47    1
44    26    27    ar
45    26    48    1
46    27    28    1
47    28    29    1
48    29    34    ar
49    29    30    ar
50    30    31    ar
51    30    49    1
52    31    32    ar
53    31    50    1
54    32    33    ar
55    32    51    1
56    33    34    ar
57    33    52    1
@<TRIPOS>SUBSTRUCTURE
1   ZINC000002186121 1     RESIDUE    1   A     ZIN   1
