@<TRIPOS>MOLECULE
ZINC000008441248
69    75    1     0     0
SMALL
USER_CHARGES
@<TRIPOS>ATOM
1      O1      0.0936   -0.0259   -0.6205 O.2      1 ZINC000008441248   -0.4700
2      C2      0.0490    1.1899   -0.5509 C.2      1 ZINC000008441248    0.3800
3      C3     -1.1606    2.0294   -0.7469 C.2      1 ZINC000008441248    0.4800
4      O4     -2.2687    1.6036   -1.0042 O.2      1 ZINC000008441248   -0.4800
5      N5     -0.8506    3.3282   -0.5976 N.am     1 ZINC000008441248   -0.5000
6      C6     -1.7407    4.3896   -0.7124 C.2      1 ZINC000008441248    0.2800
7      N7     -1.4517    5.6492   -0.5754 N.2      1 ZINC000008441248   -0.2800
8      N8     -2.3859    6.4849   -0.7131 N.2      1 ZINC000008441248   -0.2300
9      C9     -3.5737    6.0260   -0.9829 C.2      1 ZINC000008441248   -0.0600
10     S10    -5.0302    6.9891   -1.2188 S.3      1 ZINC000008441248    0.0200
11     C11    -4.3517    8.6496   -0.9769 C.3      1 ZINC000008441248   -0.0700
12     C12    -5.4499    9.6691   -1.1364 C.ar     1 ZINC000008441248   -0.0800
13     C13    -5.7193   10.2058   -2.3816 C.ar     1 ZINC000008441248   -0.1000
14     C14    -6.7266   11.1410   -2.5279 C.ar     1 ZINC000008441248   -0.1200
15     C15    -7.4650   11.5392   -1.4292 C.ar     1 ZINC000008441248   -0.1100
16     C16    -7.1962   11.0019   -0.1842 C.ar     1 ZINC000008441248   -0.1200
17     C17    -6.1917   10.0635   -0.0386 C.ar     1 ZINC000008441248   -0.1000
18     S18    -3.4629    4.2672   -1.0776 S.3      1 ZINC000008441248    0.1700
19     C19     0.5788    3.4439   -0.2936 C.3      1 ZINC000008441248    0.2800
20     H20     0.7166    3.9145    0.6799 H        1 ZINC000008441248    0.0900
21     C21     1.2697    4.2534   -1.3605 C.ar     1 ZINC000008441248   -0.0900
22     C22     0.8993    4.1090   -2.6848 C.ar     1 ZINC000008441248   -0.0700
23     C23     1.5311    4.8499   -3.6647 C.ar     1 ZINC000008441248   -0.1500
24     C24     2.5378    5.7398   -3.3190 C.ar     1 ZINC000008441248    0.1200
25     O25     3.1606    6.4702   -4.2811 O.3      1 ZINC000008441248   -0.3100
26     C26     4.1876    7.3664   -3.8522 C.3      1 ZINC000008441248    0.1000
27     C27     4.7591    8.0844   -5.0476 C.ar     1 ZINC000008441248   -0.0900
28     C28     5.8309    7.5425   -5.7321 C.ar     1 ZINC000008441248   -0.1000
29     C29     6.3551    8.2010   -6.8286 C.ar     1 ZINC000008441248   -0.1200
30     C30     5.8072    9.4014   -7.2409 C.ar     1 ZINC000008441248   -0.1100
31     C31     4.7349    9.9429   -6.5570 C.ar     1 ZINC000008441248   -0.1300
32     C32     4.2080    9.2821   -5.4631 C.ar     1 ZINC000008441248   -0.1000
33     C33     2.9073    5.8832   -1.9895 C.ar     1 ZINC000008441248   -0.2100
34     C34     2.2691    5.1434   -1.0128 C.ar     1 ZINC000008441248   -0.0300
35     C35     1.1290    2.0366   -0.2661 C.2      1 ZINC000008441248   -0.4800
36     C36     2.4380    1.6600   -0.0167 C.2      1 ZINC000008441248    0.4300
37     O37     3.3956    2.6021    0.1321 O.3      1 ZINC000008441248   -0.5900
38     C38     2.7843    0.2427    0.0855 C.2      1 ZINC000008441248    0.0600
39     C39     3.8307   -0.3597   -0.5462 C.2      1 ZINC000008441248   -0.1900
40     C40     3.8028   -1.7273   -0.1749 C.ar     1 ZINC000008441248   -0.1200
41     C41     4.6004   -2.8325   -0.4910 C.ar     1 ZINC000008441248   -0.0800
42     C42     4.3069   -4.0553    0.0426 C.ar     1 ZINC000008441248   -0.1400
43     C43     3.2231   -4.2096    0.8961 C.ar     1 ZINC000008441248   -0.1100
44     C44     2.4241   -3.1336    1.2207 C.ar     1 ZINC000008441248   -0.1000
45     C45     2.7026   -1.8805    0.6906 C.ar     1 ZINC000008441248    0.0500
46     O46     2.1201   -0.6717    0.8254 O.3      1 ZINC000008441248   -0.1500
47     H47    -3.9272    8.7264    0.0241 H        1 ZINC000008441248    0.1100
48     H48    -3.5732    8.8353   -1.7169 H        1 ZINC000008441248    0.1100
49     H49    -5.1424    9.8947   -3.2400 H        1 ZINC000008441248    0.1300
50     H50    -6.9366   11.5608   -3.5005 H        1 ZINC000008441248    0.1200
51     H51    -8.2516   12.2704   -1.5434 H        1 ZINC000008441248    0.1200
52     H52    -7.7728   11.3133    0.6743 H        1 ZINC000008441248    0.1200
53     H53    -5.9817    9.6437    0.9340 H        1 ZINC000008441248    0.1300
54     H54     0.1156    3.4162   -2.9533 H        1 ZINC000008441248    0.1100
55     H55     1.2419    4.7363   -4.6990 H        1 ZINC000008441248    0.1200
56     H56     3.7681    8.0942   -3.1577 H        1 ZINC000008441248    0.0700
57     H57     4.9773    6.8030   -3.3551 H        1 ZINC000008441248    0.0700
58     H58     6.2589    6.6047   -5.4100 H        1 ZINC000008441248    0.1300
59     H59     7.1929    7.7780   -7.3630 H        1 ZINC000008441248    0.1200
60     H60     6.2173    9.9163   -8.0972 H        1 ZINC000008441248    0.1200
61     H61     4.3071   10.8808   -6.8789 H        1 ZINC000008441248    0.1200
62     H62     3.3701    9.7052   -4.9288 H        1 ZINC000008441248    0.1200
63     H63     3.6909    6.5750   -1.7179 H        1 ZINC000008441248    0.1200
64     H64     2.5561    5.2549    0.0224 H        1 ZINC000008441248    0.1300
65     H65     4.5443    0.1141   -1.2041 H        1 ZINC000008441248    0.1500
66     H66     5.4449   -2.7194   -1.1546 H        1 ZINC000008441248    0.1200
67     H67     4.9224   -4.9084   -0.2017 H        1 ZINC000008441248    0.1200
68     H68     3.0032   -5.1827    1.3099 H        1 ZINC000008441248    0.1300
69     H69     1.5831   -3.2652    1.8855 H        1 ZINC000008441248    0.1300
@<TRIPOS>BOND
1     1     2     2
2     2     35    1
3     2     3     1
4     3     4     2
5     3     5     am
6     5     6     1
7     5     19    1
8     6     18    1
9     6     7     2
10    7     8     1
11    8     9     2
12    9     10    1
13    9     18    1
14    10    11    1
15    11    12    1
16    11    47    1
17    11    48    1
18    12    17    ar
19    12    13    ar
20    13    14    ar
21    13    49    1
22    14    15    ar
23    14    50    1
24    15    16    ar
25    15    51    1
26    16    17    ar
27    16    52    1
28    17    53    1
29    19    20    1
30    19    21    1
31    19    35    1
32    21    34    ar
33    21    22    ar
34    22    23    ar
35    22    54    1
36    23    24    ar
37    23    55    1
38    24    25    1
39    24    33    ar
40    25    26    1
41    26    27    1
42    26    56    1
43    26    57    1
44    27    32    ar
45    27    28    ar
46    28    29    ar
47    28    58    1
48    29    30    ar
49    29    59    1
50    30    31    ar
51    30    60    1
52    31    32    ar
53    31    61    1
54    32    62    1
55    33    34    ar
56    33    63    1
57    34    64    1
58    35    36    2
59    36    37    1
60    36    38    1
61    38    46    1
62    38    39    2
63    39    40    1
64    39    65    1
65    40    45    ar
66    40    41    ar
67    41    42    ar
68    41    66    1
69    42    43    ar
70    42    67    1
71    43    44    ar
72    43    68    1
73    44    45    ar
74    44    69    1
75    45    46    1
@<TRIPOS>SUBSTRUCTURE
1   ZINC000008441248 1     RESIDUE    1   A     ZIN   1
