@<TRIPOS>MOLECULE
ZINC000100001998
32    35    1     0     0
SMALL
USER_CHARGES
@<TRIPOS>ATOM
1      O1      0.0036    0.0123   -0.2657 O.2      1 ZINC000100001998   -0.5200
2      C2     -0.0137    1.2223   -0.1250 C.2      1 ZINC000100001998    0.5700
3      N3     -1.1122    1.9930   -0.0533 N.am     1 ZINC000100001998   -0.6500
4      C4     -0.7806    3.3323    0.1090 C.ar     1 ZINC000100001998    0.1400
5      C5     -1.5658    4.4732    0.2289 C.ar     1 ZINC000100001998   -0.1400
6      C6     -0.9718    5.7098    0.3833 C.ar     1 ZINC000100001998   -0.0900
7      C7      0.4072    5.8308    0.4202 C.ar     1 ZINC000100001998   -0.1400
8      C8      1.2040    4.7099    0.3024 C.ar     1 ZINC000100001998   -0.0800
9      C9      0.6155    3.4586    0.1474 C.ar     1 ZINC000100001998   -0.0800
10     C10     1.1615    2.0923    0.0022 C.2      1 ZINC000100001998   -0.2100
11     C11     2.4970    1.7143   -0.0132 C.2      1 ZINC000100001998    0.3000
12     N12     2.9776    0.4346    0.0677 N.pl3    1 ZINC000100001998   -0.6200
13     C13     4.3658    0.4193    0.0226 C.ar     1 ZINC000100001998    0.1600
14     C14     5.2756   -0.6324    0.0727 C.ar     1 ZINC000100001998   -0.1400
15     C15     6.6310   -0.3800    0.0096 C.ar     1 ZINC000100001998   -0.0600
16     C16     7.1016    0.9170   -0.1042 C.ar     1 ZINC000100001998   -0.1500
17     C17     6.2139    1.9732   -0.1557 C.ar     1 ZINC000100001998   -0.0300
18     C18     4.8461    1.7296   -0.0925 C.ar     1 ZINC000100001998   -0.1600
19     C19     3.6612    2.6195   -0.1264 C.2      1 ZINC000100001998    0.1800
20     N20     3.6481    3.9211   -0.2307 N.2      1 ZINC000100001998   -0.2600
21     O21     4.8666    4.6359   -0.3266 O.3      1 ZINC000100001998   -0.3800
22     H22    -2.0206    1.6572   -0.1084 H        1 ZINC000100001998    0.4200
23     H23    -2.6424    4.3920    0.2009 H        1 ZINC000100001998    0.1300
24     H24    -1.5887    6.5914    0.4757 H        1 ZINC000100001998    0.1300
25     H25     0.8600    6.8039    0.5410 H        1 ZINC000100001998    0.1300
26     H26     2.2796    4.8036    0.3308 H        1 ZINC000100001998    0.1600
27     H27     2.4221   -0.3566    0.1465 H        1 ZINC000100001998    0.4400
28     H28     4.9203   -1.6484    0.1614 H        1 ZINC000100001998    0.1300
29     H29     7.3307   -1.2017    0.0498 H        1 ZINC000100001998    0.1400
30     H30     8.1644    1.1028   -0.1523 H        1 ZINC000100001998    0.1400
31     H31     6.5805    2.9852   -0.2441 H        1 ZINC000100001998    0.1400
32     H32     4.7560    5.5938   -0.4002 H        1 ZINC000100001998    0.4100
@<TRIPOS>BOND
1     1     2     2
2     2     10    1
3     2     3     am
4     3     4     1
5     3     22    1
6     4     9     ar
7     4     5     ar
8     5     6     ar
9     5     23    1
10    6     7     ar
11    6     24    1
12    7     8     ar
13    7     25    1
14    8     9     ar
15    8     26    1
16    9     10    1
17    10    11    2
18    11    19    1
19    11    12    1
20    12    13    1
21    12    27    1
22    13    18    ar
23    13    14    ar
24    14    15    ar
25    14    28    1
26    15    16    ar
27    15    29    1
28    16    17    ar
29    16    30    1
30    17    18    ar
31    17    31    1
32    18    19    1
33    19    20    2
34    20    21    1
35    21    32    1
@<TRIPOS>SUBSTRUCTURE
1   ZINC000100001998 1     RESIDUE    1   A     ZIN   1
