@<TRIPOS>MOLECULE
ZINC000003945332
85    88    1     0     0
SMALL
USER_CHARGES
@<TRIPOS>ATOM
1      C1      3.6352    3.1967  -11.5065 C.3      1 ZINC000003945332    0.0200
2      O2      5.0037    3.4577  -11.1885 O.3      1 ZINC000003945332   -0.3000
3      C3      5.5267    2.7961  -10.1217 C.ar     1 ZINC000003945332    0.1500
4      C4      4.7424    1.9148   -9.4050 C.ar     1 ZINC000003945332   -0.1700
5      C5      5.2823    1.2333   -8.3063 C.ar     1 ZINC000003945332   -0.0900
6      C6      4.4501    0.2933   -7.5406 C.2      1 ZINC000003945332    0.4000
7      O7      3.2999    0.5779   -7.2753 O.2      1 ZINC000003945332   -0.3900
8      C8      5.0192   -1.0105   -7.0898 C.2      1 ZINC000003945332    0.4900
9      O9      4.6752   -2.0419   -7.6293 O.2      1 ZINC000003945332   -0.4600
10     N10     5.9151   -1.0428   -6.0834 N.am     1 ZINC000003945332   -0.6000
11     C11     6.2094    0.1675   -5.3041 C.3      1 ZINC000003945332    0.1000
12     C12     6.0192   -0.1454   -3.8166 C.3      1 ZINC000003945332   -0.1400
13     C13     6.8739   -1.3580   -3.4411 C.3      1 ZINC000003945332   -0.1200
14     C14     6.4211   -2.5742   -4.2523 C.3      1 ZINC000003945332   -0.1300
15     C15     6.6115   -2.2903   -5.7408 C.3      1 ZINC000003945332    0.1500
16     H16     7.6738   -2.1807   -5.9590 H        1 ZINC000003945332    0.1100
17     C17     6.0447   -3.4291   -6.5489 C.2      1 ZINC000003945332    0.4700
18     O18     4.8697   -3.6994   -6.4704 O.2      1 ZINC000003945332   -0.4600
19     O19     6.8452   -4.1431   -7.3558 O.3      1 ZINC000003945332   -0.3500
20     C20     6.4128   -5.4880   -7.6912 C.3      1 ZINC000003945332    0.1000
21     C21     5.9828   -5.5343   -9.1589 C.3      1 ZINC000003945332   -0.1300
22     C22     4.6598   -4.7845   -9.3266 C.3      1 ZINC000003945332   -0.1100
23     C23     3.9521   -5.2753  -10.5912 C.3      1 ZINC000003945332   -0.0800
24     C24     2.5813   -4.6546  -10.6728 C.ar     1 ZINC000003945332   -0.1300
25     C25     1.5853   -5.0337   -9.7862 C.ar     1 ZINC000003945332   -0.0700
26     C26     0.3393   -4.4355   -9.8983 C.ar     1 ZINC000003945332   -0.1700
27     C27     0.1332   -3.4882  -10.8831 C.ar     1 ZINC000003945332    0.0900
28     N28     1.1044   -3.1521  -11.7095 N.ar     1 ZINC000003945332   -0.4800
29     C29     2.3029   -3.6960  -11.6289 C.ar     1 ZINC000003945332    0.1000
30     C30     7.5680   -6.4659   -7.4671 C.3      1 ZINC000003945332   -0.1200
31     C31     7.9155   -6.5121   -5.9778 C.3      1 ZINC000003945332   -0.1200
32     C32     9.0706   -7.4899   -5.7537 C.3      1 ZINC000003945332   -0.0800
33     C33     9.4129   -7.5354   -4.2868 C.ar     1 ZINC000003945332   -0.1300
34     C34    10.3513   -6.6630   -3.7576 C.ar     1 ZINC000003945332   -0.0700
35     C35    10.6342   -6.7407   -2.4023 C.ar     1 ZINC000003945332   -0.1700
36     C36     9.9760   -7.6784   -1.6297 C.ar     1 ZINC000003945332    0.0900
37     N37     9.0887   -8.4926   -2.1673 N.ar     1 ZINC000003945332   -0.4800
38     C38     8.7909   -8.4437   -3.4509 C.ar     1 ZINC000003945332    0.1000
39     C39     6.6170    1.4492   -7.9392 C.ar     1 ZINC000003945332   -0.2100
40     C40     7.3954    2.3320   -8.6606 C.ar     1 ZINC000003945332    0.1500
41     O41     8.6912    2.5419   -8.3052 O.3      1 ZINC000003945332   -0.3000
42     C42     9.1470    1.9064   -7.1092 C.3      1 ZINC000003945332    0.0200
43     C43     6.8562    3.0045   -9.7567 C.ar     1 ZINC000003945332    0.0600
44     O44     7.6249    3.8719  -10.4642 O.3      1 ZINC000003945332   -0.3100
45     C45     8.3606    3.3367  -11.5662 C.3      1 ZINC000003945332    0.0400
46     H46     3.5096    2.1370  -11.7287 H        1 ZINC000003945332    0.0600
47     H47     3.0071    3.4669  -10.6576 H        1 ZINC000003945332    0.0600
48     H48     3.3451    3.7871  -12.3756 H        1 ZINC000003945332    0.1100
49     H49     3.7138    1.7511   -9.6906 H        1 ZINC000003945332    0.1500
50     H50     7.2392    0.4763   -5.4838 H        1 ZINC000003945332    0.0800
51     H51     5.5294    0.9666   -5.5993 H        1 ZINC000003945332    0.0900
52     H52     6.3266    0.7147   -3.2217 H        1 ZINC000003945332    0.0900
53     H53     4.9695   -0.3660   -3.6226 H        1 ZINC000003945332    0.0800
54     H54     7.9207   -1.1458   -3.6585 H        1 ZINC000003945332    0.0700
55     H55     6.7593   -1.5678   -2.3777 H        1 ZINC000003945332    0.0800
56     H56     7.0147   -3.4430   -3.9675 H        1 ZINC000003945332    0.0900
57     H57     5.3677   -2.7720   -4.0542 H        1 ZINC000003945332    0.0800
58     H58     5.5716   -5.7680   -7.0572 H        1 ZINC000003945332    0.0800
59     H59     6.7478   -5.0640   -9.7766 H        1 ZINC000003945332    0.0700
60     H60     5.8541   -6.5719   -9.4672 H        1 ZINC000003945332    0.0800
61     H61     4.0249   -4.9695   -8.4600 H        1 ZINC000003945332    0.0700
62     H62     4.8561   -3.7157   -9.4116 H        1 ZINC000003945332    0.0700
63     H63     4.5336   -4.9885  -11.4674 H        1 ZINC000003945332    0.0700
64     H64     3.8581   -6.3607  -10.5569 H        1 ZINC000003945332    0.0700
65     H65     1.7752   -5.7774   -9.0264 H        1 ZINC000003945332    0.1300
66     H66    -0.4602   -4.7068   -9.2247 H        1 ZINC000003945332    0.1300
67     H67    -0.8345   -3.0180  -10.9772 H        1 ZINC000003945332    0.1500
68     H68     3.0733   -3.3954  -12.3235 H        1 ZINC000003945332    0.1500
69     H69     7.2726   -7.4601   -7.8023 H        1 ZINC000003945332    0.0900
70     H70     8.4388   -6.1354   -8.0333 H        1 ZINC000003945332    0.0800
71     H71     8.2108   -5.5178   -5.6427 H        1 ZINC000003945332    0.0700
72     H72     7.0446   -6.8426   -5.4117 H        1 ZINC000003945332    0.0600
73     H73     8.7753   -8.4842   -6.0889 H        1 ZINC000003945332    0.0800
74     H74     9.9415   -7.1595   -6.3199 H        1 ZINC000003945332    0.0800
75     H75    10.8505   -5.9403   -4.3861 H        1 ZINC000003945332    0.1300
76     H76    11.3601   -6.0769   -1.9563 H        1 ZINC000003945332    0.1400
77     H77    10.1909   -7.7455   -0.5734 H        1 ZINC000003945332    0.1600
78     H78     8.0588   -9.1269   -3.8554 H        1 ZINC000003945332    0.1500
79     H79     7.0363    0.9259   -7.0927 H        1 ZINC000003945332    0.1500
80     H80     8.7942    2.4664   -6.2432 H        1 ZINC000003945332    0.0600
81     H81     8.7577    0.8891   -7.0673 H        1 ZINC000003945332    0.0600
82     H82    10.2366    1.8789   -7.1050 H        1 ZINC000003945332    0.1100
83     H83     9.0430    2.5661  -11.2075 H        1 ZINC000003945332    0.0500
84     H84     7.6691    2.9022  -12.2880 H        1 ZINC000003945332    0.0500
85     H85     8.9310    4.1334  -12.0436 H        1 ZINC000003945332    0.1000
@<TRIPOS>BOND
1     1     2     1
2     1     46    1
3     1     47    1
4     1     48    1
5     2     3     1
6     3     43    ar
7     3     4     ar
8     4     5     ar
9     4     49    1
10    5     6     1
11    5     39    ar
12    6     7     2
13    6     8     1
14    8     9     2
15    8     10    am
16    10    15    1
17    10    11    1
18    11    12    1
19    11    50    1
20    11    51    1
21    12    13    1
22    12    52    1
23    12    53    1
24    13    14    1
25    13    54    1
26    13    55    1
27    14    15    1
28    14    56    1
29    14    57    1
30    15    16    1
31    15    17    1
32    17    18    2
33    17    19    1
34    19    20    1
35    20    21    1
36    20    30    1
37    20    58    1
38    21    22    1
39    21    59    1
40    21    60    1
41    22    23    1
42    22    61    1
43    22    62    1
44    23    24    1
45    23    63    1
46    23    64    1
47    24    29    ar
48    24    25    ar
49    25    26    ar
50    25    65    1
51    26    27    ar
52    26    66    1
53    27    28    ar
54    27    67    1
55    28    29    ar
56    29    68    1
57    30    31    1
58    30    69    1
59    30    70    1
60    31    32    1
61    31    71    1
62    31    72    1
63    32    33    1
64    32    73    1
65    32    74    1
66    33    38    ar
67    33    34    ar
68    34    35    ar
69    34    75    1
70    35    36    ar
71    35    76    1
72    36    37    ar
73    36    77    1
74    37    38    ar
75    38    78    1
76    39    40    ar
77    39    79    1
78    40    41    1
79    40    43    ar
80    41    42    1
81    42    80    1
82    42    81    1
83    42    82    1
84    43    44    1
85    44    45    1
86    45    83    1
87    45    84    1
88    45    85    1
@<TRIPOS>SUBSTRUCTURE
1   ZINC000003945332 1     RESIDUE    1   A     ZIN   1
