@<TRIPOS>MOLECULE
ZINC000000107144
38    40    1     0     0
SMALL
USER_CHARGES
@<TRIPOS>ATOM
1      O1      0.0021   -0.0041    0.0020 O.2      1 ZINC000000107144   -0.5100
2      C2     -0.0144    1.2086    0.0087 C.2      1 ZINC000000107144    0.4900
3      C3      1.2803    1.9798    0.0005 C.3      1 ZINC000000107144    0.0900
4      N4      2.4066    1.0431   -0.0153 N.pl3    1 ZINC000000107144   -0.4800
5      C5      3.0942    0.5905    1.0678 C.2      1 ZINC000000107144    0.2700
6      N6      4.0317   -0.2295    0.6918 N.2      1 ZINC000000107144   -0.4900
7      C7      4.0098   -0.3593   -0.6597 C.ar     1 ZINC000000107144    0.0500
8      C8      4.7745   -1.0932   -1.5697 C.ar     1 ZINC000000107144   -0.0600
9      C9      4.5037   -1.0137   -2.9066 C.ar     1 ZINC000000107144   -0.1300
10     C10     3.4741   -0.2095   -3.3735 C.ar     1 ZINC000000107144   -0.1000
11     C11     2.7062    0.5238   -2.4936 C.ar     1 ZINC000000107144   -0.1100
12     C12     2.9631    0.4513   -1.1316 C.ar     1 ZINC000000107144    0.0600
13     N13    -1.1906    1.8666    0.0178 N.am     1 ZINC000000107144   -0.7300
14     C14    -2.4492    1.1169    0.0197 C.3      1 ZINC000000107144    0.1200
15     C15    -3.6255    2.0952    0.0306 C.3      1 ZINC000000107144   -0.0900
16     C16    -4.9203    1.3241    0.0326 C.ar     1 ZINC000000107144   -0.0900
17     C17    -5.5169    0.9720   -1.1637 C.ar     1 ZINC000000107144   -0.1100
18     C18    -6.7045    0.2646   -1.1619 C.ar     1 ZINC000000107144   -0.1200
19     C19    -7.2953   -0.0911    0.0361 C.ar     1 ZINC000000107144   -0.1200
20     C20    -6.6983    0.2602    1.2324 C.ar     1 ZINC000000107144   -0.1200
21     C21    -5.5084    0.9639    1.2306 C.ar     1 ZINC000000107144   -0.1100
22     H22     1.3211    2.6120   -0.8866 H        1 ZINC000000107144    0.1200
23     H23     1.3381    2.6024    0.8933 H        1 ZINC000000107144    0.1300
24     H24     2.8915    0.8713    2.0908 H        1 ZINC000000107144    0.2100
25     H25     5.5786   -1.7221   -1.2172 H        1 ZINC000000107144    0.1300
26     H26     5.0973   -1.5823   -3.6071 H        1 ZINC000000107144    0.1300
27     H27     3.2728   -0.1571   -4.4333 H        1 ZINC000000107144    0.1300
28     H28     1.9061    1.1485   -2.8623 H        1 ZINC000000107144    0.1200
29     H29    -1.2037    2.8365    0.0232 H        1 ZINC000000107144    0.4000
30     H30    -2.5027    0.4944   -0.8734 H        1 ZINC000000107144    0.0700
31     H31    -2.4943    0.4847    0.9065 H        1 ZINC000000107144    0.0700
32     H32    -3.5721    2.7178    0.9238 H        1 ZINC000000107144    0.0800
33     H33    -3.5805    2.7274   -0.8561 H        1 ZINC000000107144    0.0800
34     H34    -5.0553    1.2499   -2.0997 H        1 ZINC000000107144    0.1200
35     H35    -7.1710   -0.0098   -2.0965 H        1 ZINC000000107144    0.1200
36     H36    -8.2236   -0.6431    0.0375 H        1 ZINC000000107144    0.1200
37     H37    -7.1601   -0.0174    2.1684 H        1 ZINC000000107144    0.1200
38     H38    -5.0420    1.2383    2.1652 H        1 ZINC000000107144    0.1200
@<TRIPOS>BOND
1     1     2     2
2     2     3     1
3     2     13    am
4     3     4     1
5     3     22    1
6     3     23    1
7     4     12    1
8     4     5     1
9     5     6     2
10    5     24    1
11    6     7     1
12    7     12    ar
13    7     8     ar
14    8     9     ar
15    8     25    1
16    9     10    ar
17    9     26    1
18    10    11    ar
19    10    27    1
20    11    12    ar
21    11    28    1
22    13    14    1
23    13    29    1
24    14    15    1
25    14    30    1
26    14    31    1
27    15    16    1
28    15    32    1
29    15    33    1
30    16    21    ar
31    16    17    ar
32    17    18    ar
33    17    34    1
34    18    19    ar
35    18    35    1
36    19    20    ar
37    19    36    1
38    20    21    ar
39    20    37    1
40    21    38    1
@<TRIPOS>SUBSTRUCTURE
1   ZINC000000107144 1     RESIDUE    1   A     ZIN   1
