@<TRIPOS>MOLECULE
ZINC000022441524
87    88    1     0     0
SMALL
USER_CHARGES
@<TRIPOS>ATOM
1      C1     -0.0617    1.5797   -0.2342 C.3      1 ZINC000022441524   -0.2100
2      C2     -0.2322    0.0634   -0.1215 C.3      1 ZINC000022441524    0.0200
3      N3     -1.6553   -0.2798   -0.2439 N.3      1 ZINC000022441524   -0.5100
4      C4     -2.1283   -0.0809   -1.6203 C.3      1 ZINC000022441524    0.0400
5      C5     -1.1118    0.7630   -2.3920 C.3      1 ZINC000022441524   -0.2100
6      C6     -0.8212    0.1035   -3.7416 C.3      1 ZINC000022441524   -0.0300
7      N7      0.6316    0.0177   -3.9420 N.4      1 ZINC000022441524   -0.5100
8      H8      0.9207    0.7160   -4.6105 H        1 ZINC000022441524    0.4400
9      H9      1.1022    0.1774   -3.0639 H        1 ZINC000022441524    0.4000
10     C10     0.9781   -1.3173   -4.4476 C.3      1 ZINC000022441524   -0.0400
11     C11     2.2364   -1.8208   -3.7375 C.3      1 ZINC000022441524    0.0400
12     N12     2.0275   -3.2056   -3.2942 N.3      1 ZINC000022441524   -0.6700
13     C13     2.4773   -3.3881   -1.9077 C.3      1 ZINC000022441524    0.0600
14     C14     1.4191   -4.1702   -1.1270 C.3      1 ZINC000022441524   -0.1800
15     C15     1.1512   -3.4726    0.2081 C.3      1 ZINC000022441524   -0.0100
16     N16    -0.2920   -3.4774    0.4821 N.4      1 ZINC000022441524   -0.5200
17     H17    -0.7954   -3.6755   -0.3696 H        1 ZINC000022441524    0.4300
18     H18    -0.5016   -4.1859    1.1693 H        1 ZINC000022441524    0.4500
19     C19    -0.6973   -2.1621    0.9957 C.3      1 ZINC000022441524   -0.0700
20     C20    -1.9054   -1.6560    0.2051 C.3      1 ZINC000022441524    0.0200
21     C21     1.4248    1.9174   -0.3653 C.3      1 ZINC000022441524    0.0200
22     N22     1.6110    3.3683   -0.2305 N.3      1 ZINC000022441524   -0.5100
23     C23     1.3709    3.8037    1.1518 C.3      1 ZINC000022441524    0.0400
24     C24     0.6487    2.6937    1.9180 C.3      1 ZINC000022441524   -0.2100
25     C25     1.3452    2.4644    3.2608 C.3      1 ZINC000022441524   -0.0300
26     N26     1.5908    1.0280    3.4461 N.4      1 ZINC000022441524   -0.5100
27     H27     0.9329    0.6579    4.1156 H        1 ZINC000022441524    0.4400
28     H28     1.4776    0.5509    2.5642 H        1 ZINC000022441524    0.4000
29     C29     2.9592    0.8249    3.9404 C.3      1 ZINC000022441524   -0.0400
30     C30     3.5924   -0.3639    3.2147 C.3      1 ZINC000022441524    0.0400
31     N31     4.9431   -0.0004    2.7656 N.3      1 ZINC000022441524   -0.6700
32     C32     5.1642   -0.4145    1.3736 C.3      1 ZINC000022441524    0.0600
33     C33     5.8204    0.7303    0.5991 C.3      1 ZINC000022441524   -0.1800
34     C34     5.0886    0.9327   -0.7292 C.3      1 ZINC000022441524   -0.0100
35     N35     4.9335    2.3703   -0.9886 N.4      1 ZINC000022441524   -0.5200
36     H36     5.0812    2.8843   -0.1330 H        1 ZINC000022441524    0.4300
37     H37     5.6101    2.6626   -1.6777 H        1 ZINC000022441524    0.4500
38     C38     3.5783    2.6339   -1.4905 C.3      1 ZINC000022441524   -0.0700
39     C39     2.9484    3.7719   -0.6848 C.3      1 ZINC000022441524    0.0200
40     H40    -0.5953    1.9409   -1.1134 H        1 ZINC000022441524    0.1300
41     H41    -0.4658    2.0581    0.6579 H        1 ZINC000022441524    0.1300
42     H42     0.3292   -0.4256   -0.9176 H        1 ZINC000022441524    0.0300
43     H43     0.1408   -0.2732    0.8458 H        1 ZINC000022441524    0.0800
44     H44    -2.2425   -1.0487   -2.1087 H        1 ZINC000022441524    0.0700
45     H45    -3.0893    0.4332   -1.6036 H        1 ZINC000022441524    0.1200
46     H46    -1.5177    1.7613   -2.5553 H        1 ZINC000022441524    0.1300
47     H47    -0.1887    0.8357   -1.8169 H        1 ZINC000022441524    0.1200
48     H48    -1.2497   -0.8987   -3.7561 H        1 ZINC000022441524    0.1400
49     H49    -1.2635    0.6994   -4.5399 H        1 ZINC000022441524    0.1500
50     H50     0.1535   -2.0038   -4.2559 H        1 ZINC000022441524    0.1400
51     H51     1.1636   -1.2627   -5.5203 H        1 ZINC000022441524    0.1600
52     H52     3.0814   -1.7829   -4.4250 H        1 ZINC000022441524    0.1200
53     H53     2.4428   -1.1898   -2.8730 H        1 ZINC000022441524    0.0500
54     H54     1.0615   -3.4772   -3.3996 H        1 ZINC000022441524    0.3500
55     H55     3.4167   -3.9409   -1.9002 H        1 ZINC000022441524    0.1100
56     H56     2.6255   -2.4135   -1.4426 H        1 ZINC000022441524    0.0500
57     H57     0.4970   -4.2119   -1.7066 H        1 ZINC000022441524    0.0900
58     H58     1.7783   -5.1826   -0.9423 H        1 ZINC000022441524    0.1300
59     H59     1.6741   -4.0008    1.0054 H        1 ZINC000022441524    0.1500
60     H60     1.5082   -2.4439    0.1587 H        1 ZINC000022441524    0.1100
61     H61    -0.9632   -2.2496    2.0492 H        1 ZINC000022441524    0.1500
62     H62     0.1287   -1.4592    0.8866 H        1 ZINC000022441524    0.1500
63     H63    -2.7902   -1.6754    0.8415 H        1 ZINC000022441524    0.1300
64     H64    -2.0671   -2.2971   -0.6615 H        1 ZINC000022441524    0.0800
65     H65     1.9841    1.4050    0.4175 H        1 ZINC000022441524    0.0300
66     H66     1.7862    1.5938   -1.3414 H        1 ZINC000022441524    0.0800
67     H67     2.3237    4.0186    1.6357 H        1 ZINC000022441524    0.0700
68     H68     0.7546    4.7027    1.1477 H        1 ZINC000022441524    0.1200
69     H69    -0.3870    2.9863    2.0912 H        1 ZINC000022441524    0.1300
70     H70     0.6735    1.7737    1.3340 H        1 ZINC000022441524    0.1200
71     H71     2.2945    3.0000    3.2738 H        1 ZINC000022441524    0.1400
72     H72     0.7099    2.8313    4.0670 H        1 ZINC000022441524    0.1500
73     H73     3.5500    1.7216    3.7531 H        1 ZINC000022441524    0.1400
74     H74     2.9325    0.6245    5.0115 H        1 ZINC000022441524    0.1600
75     H75     3.6520   -1.2144    3.8939 H        1 ZINC000022441524    0.1200
76     H76     2.9819   -0.6300    2.3518 H        1 ZINC000022441524    0.0500
77     H77     5.1080    0.9885    2.8792 H        1 ZINC000022441524    0.3500
78     H78     5.8164   -1.2876    1.3535 H        1 ZINC000022441524    0.1100
79     H79     4.2085   -0.6641    0.9126 H        1 ZINC000022441524    0.0500
80     H80     5.7649    1.6460    1.1878 H        1 ZINC000022441524    0.0900
81     H81     6.8647    0.4859    0.4050 H        1 ZINC000022441524    0.1300
82     H82     5.6653    0.4783   -1.5347 H        1 ZINC000022441524    0.1500
83     H83     4.1055    0.4647   -0.6774 H        1 ZINC000022441524    0.1100
84     H84     3.6289    2.9177   -2.5417 H        1 ZINC000022441524    0.1500
85     H85     2.9708    1.7350   -1.3857 H        1 ZINC000022441524    0.1500
86     H86     2.8665    4.6594   -1.3123 H        1 ZINC000022441524    0.1300
87     H87     3.5739    3.9946    0.1796 H        1 ZINC000022441524    0.0800
@<TRIPOS>BOND
1     1     2     1
2     1     21    1
3     1     40    1
4     1     41    1
5     2     3     1
6     2     42    1
7     2     43    1
8     3     20    1
9     3     4     1
10    4     5     1
11    4     44    1
12    4     45    1
13    5     6     1
14    5     46    1
15    5     47    1
16    6     7     1
17    6     48    1
18    6     49    1
19    7     8     1
20    7     9     1
21    7     10    1
22    10    11    1
23    10    50    1
24    10    51    1
25    11    12    1
26    11    52    1
27    11    53    1
28    12    13    1
29    12    54    1
30    13    14    1
31    13    55    1
32    13    56    1
33    14    15    1
34    14    57    1
35    14    58    1
36    15    16    1
37    15    59    1
38    15    60    1
39    16    17    1
40    16    18    1
41    16    19    1
42    19    20    1
43    19    61    1
44    19    62    1
45    20    63    1
46    20    64    1
47    21    22    1
48    21    65    1
49    21    66    1
50    22    39    1
51    22    23    1
52    23    24    1
53    23    67    1
54    23    68    1
55    24    25    1
56    24    69    1
57    24    70    1
58    25    26    1
59    25    71    1
60    25    72    1
61    26    27    1
62    26    28    1
63    26    29    1
64    29    30    1
65    29    73    1
66    29    74    1
67    30    31    1
68    30    75    1
69    30    76    1
70    31    32    1
71    31    77    1
72    32    33    1
73    32    78    1
74    32    79    1
75    33    34    1
76    33    80    1
77    33    81    1
78    34    35    1
79    34    82    1
80    34    83    1
81    35    36    1
82    35    37    1
83    35    38    1
84    38    39    1
85    38    84    1
86    38    85    1
87    39    86    1
88    39    87    1
@<TRIPOS>SUBSTRUCTURE
1   ZINC000022441524 1     RESIDUE    1   A     ZIN   1
