@<TRIPOS>MOLECULE
ZINC000095565934
69    74    1     0     0
SMALL
USER_CHARGES
@<TRIPOS>ATOM
1      C1     -0.0187    1.5258    0.0104 C.3      1 ZINC000095565934   -0.1400
2      C2      0.0021   -0.0041    0.0020 C.3      1 ZINC000095565934   -0.0500
3      C3     -1.4117   -0.5257    0.0127 C.2      1 ZINC000095565934    0.3200
4      N4     -2.1028   -0.7841    1.0837 N.2      1 ZINC000095565934   -0.4800
5      C5     -3.3354   -1.2372    0.7360 C.ar     1 ZINC000095565934    0.0500
6      C6     -4.4502   -1.6510    1.4692 C.ar     1 ZINC000095565934   -0.0700
7      C7     -5.5851   -2.0675    0.8108 C.ar     1 ZINC000095565934   -0.1200
8      C8     -5.6308   -2.0800   -0.5757 C.ar     1 ZINC000095565934   -0.1100
9      C9     -4.5391   -1.6746   -1.3145 C.ar     1 ZINC000095565934   -0.0900
10     C10    -3.3872   -1.2514   -0.6681 C.ar     1 ZINC000095565934    0.0600
11     N11    -2.1559   -0.7903   -1.0995 N.pl3    1 ZINC000095565934   -0.4200
12     C12    -1.7507   -0.6290   -2.4233 C.ar     1 ZINC000095565934    0.5900
13     N13    -2.6009   -0.9319   -3.3941 N.ar     1 ZINC000095565934   -0.5600
14     C14    -2.2618   -0.7948   -4.6715 C.ar     1 ZINC000095565934    0.4500
15     N15    -3.1570   -1.1134   -5.6793 N.3      1 ZINC000095565934   -0.4600
16     C16    -3.3735    0.0333   -6.5735 C.3      1 ZINC000095565934    0.0200
17     C17    -4.3202   -0.3794   -7.7037 C.3      1 ZINC000095565934    0.0600
18     O18    -5.5420   -0.8659   -7.1416 O.3      1 ZINC000095565934   -0.3800
19     C19    -5.3681   -1.9832   -6.2659 C.3      1 ZINC000095565934    0.0600
20     C20    -4.4320   -1.5868   -5.1212 C.3      1 ZINC000095565934    0.0200
21     C21    -0.9762   -0.3196   -4.9777 C.ar     1 ZINC000095565934   -0.0500
22     N22    -0.3067   -0.0624   -6.1306 N.2      1 ZINC000095565934   -0.4900
23     C23     0.8922    0.3753   -5.8479 C.2      1 ZINC000095565934    0.4700
24     O24     1.8270    0.7283   -6.7609 O.3      1 ZINC000095565934   -0.2700
25     C25     1.4659    0.6094   -8.1384 C.3      1 ZINC000095565934    0.0600
26     C26     1.3669    1.9592   -8.8720 C.3      1 ZINC000095565934    0.1000
27     N27     2.0556    1.2875   -9.9911 N.am     1 ZINC000095565934   -0.6400
28     C28     2.1136    1.4897  -11.3224 C.2      1 ZINC000095565934    0.5500
29     O29     1.4968    2.4055  -11.8240 O.2      1 ZINC000095565934   -0.5300
30     C30     2.9447    0.5777  -12.1875 C.3      1 ZINC000095565934   -0.1100
31     C31     2.8383    1.0229  -13.6474 C.3      1 ZINC000095565934   -0.1400
32     C32     4.4064    0.6424  -11.7399 C.3      1 ZINC000095565934   -0.1500
33     C33     2.6555    0.3056   -9.0670 C.3      1 ZINC000095565934    0.1100
34     N34     1.0603    0.4238   -4.4923 N.pl3    1 ZINC000095565934   -0.4600
35     C35     2.2656    0.8604   -3.7832 C.3      1 ZINC000095565934    0.0800
36     C36    -0.1101   -0.0118   -3.9162 C.ar     1 ZINC000095565934    0.3300
37     N37    -0.5335   -0.1741   -2.6674 N.ar     1 ZINC000095565934   -0.5400
38     H38     1.0039    1.9031    0.0027 H        1 ZINC000095565934    0.0700
39     H39    -0.5459    1.8868   -0.8726 H        1 ZINC000095565934    0.0500
40     H40    -0.5289    1.8773    0.9072 H        1 ZINC000095565934    0.0600
41     H41     0.5123   -0.3556   -0.8948 H        1 ZINC000095565934    0.1100
42     H42     0.5293   -0.3651    0.8851 H        1 ZINC000095565934    0.1000
43     H43    -4.4217   -1.6446    2.5488 H        1 ZINC000095565934    0.1300
44     H44    -6.4467   -2.3873    1.3781 H        1 ZINC000095565934    0.1300
45     H45    -6.5271   -2.4097   -1.0799 H        1 ZINC000095565934    0.1300
46     H46    -4.5808   -1.6870   -2.3936 H        1 ZINC000095565934    0.1400
47     H47    -3.8153    0.8555   -6.0106 H        1 ZINC000095565934    0.0600
48     H48    -2.4199    0.3511   -6.9952 H        1 ZINC000095565934    0.1100
49     H49    -4.5288    0.4829   -8.3369 H        1 ZINC000095565934    0.1100
50     H50    -3.8553   -1.1651   -8.2993 H        1 ZINC000095565934    0.0700
51     H51    -6.3347   -2.2808   -5.8593 H        1 ZINC000095565934    0.1100
52     H52    -4.9337   -2.8155   -6.8197 H        1 ZINC000095565934    0.0600
53     H53    -4.2512   -2.4515   -4.4828 H        1 ZINC000095565934    0.1000
54     H54    -4.8908   -0.7905   -4.5351 H        1 ZINC000095565934    0.0700
55     H55     0.6071   -0.0427   -8.2978 H        1 ZINC000095565934    0.1400
56     H56     0.3448    2.2601   -9.1023 H        1 ZINC000095565934    0.1000
57     H57     1.9519    2.7543   -8.4098 H        1 ZINC000095565934    0.1000
58     H58     2.5805   -0.4452  -12.0921 H        1 ZINC000095565934    0.1000
59     H59     3.2025    2.0458  -13.7429 H        1 ZINC000095565934    0.0600
60     H60     3.4394    0.3633  -14.2732 H        1 ZINC000095565934    0.0700
61     H61     1.7970    0.9768  -13.9663 H        1 ZINC000095565934    0.0600
62     H62     4.7706    1.6653  -11.8353 H        1 ZINC000095565934    0.0600
63     H63     4.4822    0.3252  -10.6998 H        1 ZINC000095565934    0.0600
64     H64     5.0075   -0.0172  -12.3657 H        1 ZINC000095565934    0.0700
65     H65     3.6191    0.6150   -8.6621 H        1 ZINC000095565934    0.1000
66     H66     2.6624   -0.7138   -9.4530 H        1 ZINC000095565934    0.1000
67     H67     2.2097    1.9332   -3.5982 H        1 ZINC000095565934    0.0800
68     H68     2.3399    0.3313   -2.8332 H        1 ZINC000095565934    0.1000
69     H69     3.1438    0.6417   -4.3906 H        1 ZINC000095565934    0.1000
@<TRIPOS>BOND
1     1     2     1
2     1     38    1
3     1     39    1
4     1     40    1
5     2     3     1
6     2     41    1
7     2     42    1
8     3     11    1
9     3     4     2
10    4     5     1
11    5     10    ar
12    5     6     ar
13    6     7     ar
14    6     43    1
15    7     8     ar
16    7     44    1
17    8     9     ar
18    8     45    1
19    9     10    ar
20    9     46    1
21    10    11    1
22    11    12    1
23    12    37    ar
24    12    13    ar
25    13    14    ar
26    14    15    1
27    14    21    ar
28    15    20    1
29    15    16    1
30    16    17    1
31    16    47    1
32    16    48    1
33    17    18    1
34    17    49    1
35    17    50    1
36    18    19    1
37    19    20    1
38    19    51    1
39    19    52    1
40    20    53    1
41    20    54    1
42    21    36    ar
43    21    22    1
44    22    23    2
45    23    24    1
46    23    34    1
47    24    25    1
48    25    33    1
49    25    26    1
50    25    55    1
51    26    27    1
52    26    56    1
53    26    57    1
54    27    28    am
55    27    33    1
56    28    29    2
57    28    30    1
58    30    31    1
59    30    32    1
60    30    58    1
61    31    59    1
62    31    60    1
63    31    61    1
64    32    62    1
65    32    63    1
66    32    64    1
67    33    65    1
68    33    66    1
69    34    35    1
70    34    36    1
71    35    67    1
72    35    68    1
73    35    69    1
74    36    37    ar
@<TRIPOS>SUBSTRUCTURE
1   ZINC000095565934 1     RESIDUE    1   A     ZIN   1
