@<TRIPOS>MOLECULE
ZINC000140585706
92    95    1     0     0
SMALL
USER_CHARGES
@<TRIPOS>ATOM
1      N1     -0.0167    1.3820    0.0096 N.pl3    1 ZINC000140585706   -0.8300
2      C2      0.0021   -0.0041    0.0020 C.ar     1 ZINC000140585706    0.4900
3      C3     -1.1880   -0.7253    0.0037 C.ar     1 ZINC000140585706   -0.3500
4      C4     -1.1201   -2.1155   -0.0047 C.ar     1 ZINC000140585706    0.4200
5      N5     -2.2796   -2.8752   -0.0039 N.3      1 ZINC000140585706   -0.4700
6      C6     -3.1322   -2.5337    1.1435 C.3      1 ZINC000140585706    0.0400
7      C7     -4.4252   -3.3493    1.0750 C.3      1 ZINC000140585706   -0.0100
8      N8     -4.1021   -4.7820    1.0924 N.4      1 ZINC000140585706   -0.3900
9      H9     -3.5983   -5.0027    1.9383 H        1 ZINC000140585706    0.4200
10     C10    -5.3444   -5.5645    1.0445 C.3      1 ZINC000140585706    0.0200
11     C11    -5.0162   -7.0520    1.1881 C.3      1 ZINC000140585706   -0.7600
12     P12    -6.5579   -8.0230    1.1286 P.3      1 ZINC000140585706    2.2500
13     O13    -7.5368   -7.5015    2.2041 O.2      1 ZINC000140585706   -1.0800
14     O14    -7.2031   -7.8798   -0.2679 O.3      1 ZINC000140585706   -1.0800
15     O15    -6.2270   -9.5732    1.4105 O.3      1 ZINC000140585706   -0.9000
16     C16    -3.2708   -5.1124   -0.0726 C.3      1 ZINC000140585706   -0.0100
17     C17    -1.9682   -4.3115   -0.0136 C.3      1 ZINC000140585706    0.0500
18     N18     0.0728   -2.7058   -0.0139 N.ar     1 ZINC000140585706   -0.6400
19     C19     1.1853   -1.9869   -0.0152 C.ar     1 ZINC000140585706    0.6300
20     N20     2.4072   -2.6364   -0.0254 N.pl3    1 ZINC000140585706   -0.7000
21     C21     3.6495   -1.8599   -0.0270 C.3      1 ZINC000140585706    0.1500
22     C22     4.8465   -2.8128   -0.0389 C.3      1 ZINC000140585706   -0.1100
23     C23     4.8591   -3.5994   -1.3512 C.3      1 ZINC000140585706   -0.1200
24     C24     6.0561   -4.5522   -1.3631 C.3      1 ZINC000140585706   -0.1200
25     C25     7.3508   -3.7464   -1.2391 C.3      1 ZINC000140585706   -0.1100
26     C26     7.4611   -2.7742   -2.4154 C.3      1 ZINC000140585706   -0.0200
27     N27     8.7579   -2.0863   -2.3621 N.4      1 ZINC000140585706   -0.5100
28     H28     8.8322   -1.5752   -1.4953 H        1 ZINC000140585706    0.4300
29     H29     9.5017   -2.7659   -2.4166 H        1 ZINC000140585706    0.4300
30     C30     8.8638   -1.1529   -3.4915 C.3      1 ZINC000140585706   -0.0100
31     C31    10.2145   -0.4364   -3.4361 C.3      1 ZINC000140585706   -0.1800
32     C32    10.3248    0.5358   -4.6124 C.3      1 ZINC000140585706   -0.0100
33     N33    11.6217    1.2237   -4.5591 N.4      1 ZINC000140585706   -0.5100
34     H34    11.6960    1.7348   -3.6923 H        1 ZINC000140585706    0.4300
35     H35    12.3654    0.5441   -4.6136 H        1 ZINC000140585706    0.4300
36     C36    11.7276    2.1571   -5.6885 C.3      1 ZINC000140585706    0.0200
37     C37    10.6779    3.2601   -5.5387 C.3      1 ZINC000140585706   -0.1400
38     C38    10.7882    4.2322   -6.7150 C.3      1 ZINC000140585706   -0.1200
39     C39    12.1849    4.8564   -6.7316 C.3      1 ZINC000140585706   -0.1300
40     C40    13.2347    3.7534   -6.8814 C.3      1 ZINC000140585706   -0.1200
41     C41    13.1244    2.7813   -5.7051 C.3      1 ZINC000140585706   -0.1400
42     C42     7.3381   -2.9598    0.0732 C.3      1 ZINC000140585706   -0.1300
43     C43     6.1411   -2.0069    0.0851 C.3      1 ZINC000140585706   -0.1200
44     N44     1.1589   -0.6628   -0.0126 N.ar     1 ZINC000140585706   -0.6300
45     H45     0.8166    1.8784    0.0043 H        1 ZINC000140585706    0.4100
46     H46    -0.8633    1.8555    0.0162 H        1 ZINC000140585706    0.4200
47     H47    -2.1416   -0.2183    0.0116 H        1 ZINC000140585706    0.1400
48     H48    -2.6054   -2.7643    2.0695 H        1 ZINC000140585706    0.0700
49     H49    -3.3709   -1.4705    1.1156 H        1 ZINC000140585706    0.1300
50     H50    -5.0529   -3.1080    1.9328 H        1 ZINC000140585706    0.1500
51     H51    -4.9585   -3.1083    0.1554 H        1 ZINC000140585706    0.1400
52     H52    -5.9994   -5.2566    1.8595 H        1 ZINC000140585706    0.1400
53     H53    -5.8451   -5.3933    0.0915 H        1 ZINC000140585706    0.1400
54     H54    -4.3612   -7.3598    0.3730 H        1 ZINC000140585706    0.1000
55     H55    -4.5155   -7.2232    2.1410 H        1 ZINC000140585706    0.1000
56     H56    -7.0027  -10.1503    1.3941 H        1 ZINC000140585706    0.4300
57     H57    -3.0426   -6.1783   -0.0656 H        1 ZINC000140585706    0.1400
58     H58    -3.8099   -4.8624   -0.9863 H        1 ZINC000140585706    0.1400
59     H59    -1.3576   -4.5454   -0.8858 H        1 ZINC000140585706    0.1300
60     H60    -1.4222   -4.5715    0.8933 H        1 ZINC000140585706    0.0700
61     H61     2.4412   -3.6058   -0.0315 H        1 ZINC000140585706    0.4100
62     H62     3.6807   -1.2262   -0.9133 H        1 ZINC000140585706    0.0600
63     H63     3.6898   -1.2370    0.8666 H        1 ZINC000140585706    0.0700
64     H64     4.7679   -3.5053    0.7991 H        1 ZINC000140585706    0.0900
65     H65     3.9368   -4.1735   -1.4396 H        1 ZINC000140585706    0.0800
66     H66     4.9377   -2.9068   -2.1892 H        1 ZINC000140585706    0.0600
67     H67     5.9776   -5.2448   -0.5251 H        1 ZINC000140585706    0.0900
68     H68     6.0651   -5.1126   -2.2980 H        1 ZINC000140585706    0.0800
69     H69     8.2035   -4.4252   -1.2476 H        1 ZINC000140585706    0.1000
70     H70     7.3808   -3.3263   -3.3518 H        1 ZINC000140585706    0.1400
71     H71     6.6576   -2.0400   -2.3565 H        1 ZINC000140585706    0.1400
72     H72     8.7836   -1.7050   -4.4279 H        1 ZINC000140585706    0.1400
73     H73     8.0604   -0.4186   -3.4326 H        1 ZINC000140585706    0.1400
74     H74    10.2948    0.1157   -2.4997 H        1 ZINC000140585706    0.1100
75     H75    11.0180   -1.1706   -3.4949 H        1 ZINC000140585706    0.1100
76     H76    10.2446   -0.0163   -5.5488 H        1 ZINC000140585706    0.1400
77     H77     9.5214    1.2700   -4.5535 H        1 ZINC000140585706    0.1400
78     H78    11.5589    1.6192   -6.6214 H        1 ZINC000140585706    0.1400
79     H79     9.6828    2.8154   -5.5270 H        1 ZINC000140585706    0.0800
80     H80    10.8466    3.7980   -4.6058 H        1 ZINC000140585706    0.0900
81     H81    10.6195    3.6944   -7.6480 H        1 ZINC000140585706    0.0800
82     H82    10.0403    5.0180   -6.6083 H        1 ZINC000140585706    0.0900
83     H83    12.2635    5.5490   -7.5696 H        1 ZINC000140585706    0.0800
84     H84    12.3536    5.3943   -5.7987 H        1 ZINC000140585706    0.0700
85     H85    13.0660    3.2156   -7.8143 H        1 ZINC000140585706    0.0800
86     H86    14.2298    4.1981   -6.8932 H        1 ZINC000140585706    0.0900
87     H87    13.2931    3.3191   -4.7721 H        1 ZINC000140585706    0.0900
88     H88    13.8722    1.9955   -5.8118 H        1 ZINC000140585706    0.0900
89     H89     7.2596   -3.6523    0.9112 H        1 ZINC000140585706    0.1000
90     H90     8.2605   -2.3856    0.1616 H        1 ZINC000140585706    0.0600
91     H91     6.2197   -1.3143   -0.7529 H        1 ZINC000140585706    0.0600
92     H92     6.1321   -1.4465    1.0200 H        1 ZINC000140585706    0.0800
@<TRIPOS>BOND
1     1     2     1
2     1     45    1
3     1     46    1
4     2     44    ar
5     2     3     ar
6     3     4     ar
7     3     47    1
8     4     5     1
9     4     18    ar
10    5     17    1
11    5     6     1
12    6     7     1
13    6     48    1
14    6     49    1
15    7     8     1
16    7     50    1
17    7     51    1
18    8     9     1
19    8     10    1
20    8     16    1
21    10    11    1
22    10    52    1
23    10    53    1
24    11    12    1
25    11    54    1
26    11    55    1
27    12    13    2
28    12    14    1
29    12    15    1
30    15    56    1
31    16    17    1
32    16    57    1
33    16    58    1
34    17    59    1
35    17    60    1
36    18    19    ar
37    19    20    1
38    19    44    ar
39    20    21    1
40    20    61    1
41    21    22    1
42    21    62    1
43    21    63    1
44    22    43    1
45    22    23    1
46    22    64    1
47    23    24    1
48    23    65    1
49    23    66    1
50    24    25    1
51    24    67    1
52    24    68    1
53    25    26    1
54    25    42    1
55    25    69    1
56    26    27    1
57    26    70    1
58    26    71    1
59    27    28    1
60    27    29    1
61    27    30    1
62    30    31    1
63    30    72    1
64    30    73    1
65    31    32    1
66    31    74    1
67    31    75    1
68    32    33    1
69    32    76    1
70    32    77    1
71    33    34    1
72    33    35    1
73    33    36    1
74    36    41    1
75    36    37    1
76    36    78    1
77    37    38    1
78    37    79    1
79    37    80    1
80    38    39    1
81    38    81    1
82    38    82    1
83    39    40    1
84    39    83    1
85    39    84    1
86    40    41    1
87    40    85    1
88    40    86    1
89    41    87    1
90    41    88    1
91    42    43    1
92    42    89    1
93    42    90    1
94    43    91    1
95    43    92    1
@<TRIPOS>SUBSTRUCTURE
1   ZINC000140585706 1     RESIDUE    1   A     ZIN   1
