@<TRIPOS>MOLECULE
ZINC000039105887
54    56    1     0     0
SMALL
USER_CHARGES
@<TRIPOS>ATOM
1      C1     -0.0187    1.5258    0.0104 C.3      1 ZINC000039105887   -0.1500
2      C2      0.0021   -0.0041    0.0020 C.3      1 ZINC000039105887    0.0600
3      O3     -1.3386   -0.4987    0.0122 O.3      1 ZINC000039105887   -0.3400
4      C4     -1.4972   -1.8388    0.0065 C.2      1 ZINC000039105887    0.5300
5      O5     -0.5223   -2.5669   -0.0067 O.2      1 ZINC000039105887   -0.5300
6      C6     -2.7965   -2.3971    0.0159 C.2      1 ZINC000039105887   -0.2400
7      C7     -2.9378   -3.7339    0.0156 C.2      1 ZINC000039105887    0.2000
8      N8     -4.1801   -4.3071    0.0161 N.pl3    1 ZINC000039105887   -0.5200
9      C9     -4.3348   -5.7121    0.4014 C.3      1 ZINC000039105887    0.1500
10     C10    -4.5677   -5.8026    1.8876 C.ar     1 ZINC000039105887   -0.1300
11     C11    -3.4934   -5.9190    2.7497 C.ar     1 ZINC000039105887   -0.1000
12     C12    -3.7071   -6.0021    4.1129 C.ar     1 ZINC000039105887   -0.1200
13     C13    -4.9950   -5.9683    4.6140 C.ar     1 ZINC000039105887   -0.1100
14     C14    -6.0692   -5.8510    3.7519 C.ar     1 ZINC000039105887   -0.1200
15     C15    -5.8553   -5.7636    2.3890 C.ar     1 ZINC000039105887   -0.1000
16     C16    -5.2787   -3.5741   -0.3412 C.2      1 ZINC000039105887    0.2000
17     C17    -5.2350   -2.2306   -0.3557 C.2      1 ZINC000039105887   -0.2400
18     C18    -6.3870   -1.5050   -0.7382 C.2      1 ZINC000039105887    0.5300
19     O19    -7.4034   -2.0972   -1.0496 O.2      1 ZINC000039105887   -0.5300
20     O20    -6.3590   -0.1560   -0.7580 O.3      1 ZINC000039105887   -0.3400
21     C21    -7.5584    0.5121   -1.1544 C.3      1 ZINC000039105887    0.0600
22     C22    -7.3361    2.0253   -1.1156 C.3      1 ZINC000039105887   -0.1500
23     C23    -3.9889   -1.4833    0.0322 C.3      1 ZINC000039105887    0.0800
24     C24    -4.1662   -0.9057    1.4128 C.ar     1 ZINC000039105887   -0.0700
25     C25    -4.4005   -1.7430    2.4874 C.ar     1 ZINC000039105887   -0.1000
26     C26    -4.5631   -1.2132    3.7538 C.ar     1 ZINC000039105887   -0.1200
27     C27    -4.4911    0.1539    3.9456 C.ar     1 ZINC000039105887   -0.1200
28     C28    -4.2560    0.9911    2.8711 C.ar     1 ZINC000039105887   -0.1200
29     C29    -4.0891    0.4610    1.6054 C.ar     1 ZINC000039105887   -0.0900
30     H30     1.0039    1.9031    0.0027 H        1 ZINC000039105887    0.0800
31     H31    -0.5459    1.8868   -0.8726 H        1 ZINC000039105887    0.0700
32     H32    -0.5289    1.8773    0.9072 H        1 ZINC000039105887    0.0700
33     H33     0.5123   -0.3556   -0.8948 H        1 ZINC000039105887    0.0700
34     H34     0.5293   -0.3651    0.8851 H        1 ZINC000039105887    0.0700
35     H35    -2.0600   -4.3630    0.0145 H        1 ZINC000039105887    0.1700
36     H36    -5.1859   -6.1421   -0.1266 H        1 ZINC000039105887    0.1100
37     H37    -3.4302   -6.2618    0.1413 H        1 ZINC000039105887    0.1100
38     H38    -2.4872   -5.9454    2.3583 H        1 ZINC000039105887    0.1200
39     H39    -2.8679   -6.0938    4.7865 H        1 ZINC000039105887    0.1300
40     H40    -5.1620   -6.0340    5.6790 H        1 ZINC000039105887    0.1200
41     H41    -7.0754   -5.8250    4.1434 H        1 ZINC000039105887    0.1300
42     H42    -6.6946   -5.6720    1.7155 H        1 ZINC000039105887    0.1200
43     H43    -6.1922   -4.0810   -0.6152 H        1 ZINC000039105887    0.1700
44     H44    -7.8249    0.2098   -2.1672 H        1 ZINC000039105887    0.0700
45     H45    -8.3653    0.2458   -0.4716 H        1 ZINC000039105887    0.0700
46     H46    -7.0696    2.3276   -0.1028 H        1 ZINC000039105887    0.0700
47     H47    -6.5292    2.2916   -1.7984 H        1 ZINC000039105887    0.0700
48     H48    -8.2510    2.5349   -1.4180 H        1 ZINC000039105887    0.0800
49     H49    -3.8215   -0.6723   -0.6766 H        1 ZINC000039105887    0.1000
50     H50    -4.4567   -2.8111    2.3376 H        1 ZINC000039105887    0.1100
51     H51    -4.7468   -1.8673    4.5933 H        1 ZINC000039105887    0.1100
52     H52    -4.6189    0.5678    4.9349 H        1 ZINC000039105887    0.1200
53     H53    -4.2001    2.0592    3.0208 H        1 ZINC000039105887    0.1200
54     H54    -3.9053    1.1151    0.7659 H        1 ZINC000039105887    0.1200
@<TRIPOS>BOND
1     1     2     1
2     1     30    1
3     1     31    1
4     1     32    1
5     2     3     1
6     2     33    1
7     2     34    1
8     3     4     1
9     4     5     2
10    4     6     1
11    6     23    1
12    6     7     2
13    7     8     1
14    7     35    1
15    8     9     1
16    8     16    1
17    9     10    1
18    9     36    1
19    9     37    1
20    10    15    ar
21    10    11    ar
22    11    12    ar
23    11    38    1
24    12    13    ar
25    12    39    1
26    13    14    ar
27    13    40    1
28    14    15    ar
29    14    41    1
30    15    42    1
31    16    17    2
32    16    43    1
33    17    18    1
34    17    23    1
35    18    19    2
36    18    20    1
37    20    21    1
38    21    22    1
39    21    44    1
40    21    45    1
41    22    46    1
42    22    47    1
43    22    48    1
44    23    24    1
45    23    49    1
46    24    29    ar
47    24    25    ar
48    25    26    ar
49    25    50    1
50    26    27    ar
51    26    51    1
52    27    28    ar
53    27    52    1
54    28    29    ar
55    28    53    1
56    29    54    1
@<TRIPOS>SUBSTRUCTURE
1   ZINC000039105887 1     RESIDUE    1   A     ZIN   1
