@<TRIPOS>MOLECULE
ZINC000026735751
81    85    1     0     0
SMALL
USER_CHARGES
@<TRIPOS>ATOM
1      O1      7.7352    4.1173    6.7541 O.co2    1 ZINC000026735751   -0.6900
2      C2      6.7992    4.5171    7.4253 C.2      1 ZINC000026735751    0.5000
3      O3      6.1345    3.7284    8.0754 O.co2    1 ZINC000026735751   -0.7000
4      C4      6.4676    5.9869    7.4562 C.3      1 ZINC000026735751   -0.0500
5      O5      5.2716    6.1895    8.2115 O.3      1 ZINC000026735751   -0.2600
6      C6      4.1000    6.1715    7.5268 C.ar     1 ZINC000026735751    0.2000
7      C7      4.0848    5.7949    6.1889 C.ar     1 ZINC000026735751   -0.2200
8      C8      2.8981    5.7753    5.4907 C.ar     1 ZINC000026735751   -0.0200
9      C9      1.7080    6.1341    6.1291 C.ar     1 ZINC000026735751   -0.1700
10     C10     0.4337    6.1140    5.3845 C.2      1 ZINC000026735751    0.5900
11     O11     0.2521    5.2864    4.5126 O.2      1 ZINC000026735751   -0.5400
12     N12    -0.5285    7.0131    5.6712 N.am     1 ZINC000026735751   -0.5900
13     C13    -1.5577    7.3268    4.6769 C.3      1 ZINC000026735751    0.1300
14     C14    -2.7445    6.4204    4.8792 C.ar     1 ZINC000026735751   -0.0800
15     C15    -2.8600    5.2596    4.1380 C.ar     1 ZINC000026735751   -0.0800
16     C16    -3.9472    4.4247    4.3201 C.ar     1 ZINC000026735751   -0.1100
17     C17    -4.9240    4.7506    5.2463 C.ar     1 ZINC000026735751    0.0200
18     O18    -6.0741    4.1126    5.6116 O.3      1 ZINC000026735751   -0.3200
19     C19    -6.4508    4.6922    6.8746 C.3      1 ZINC000026735751    0.2100
20     O20    -5.8848    6.0152    6.8264 O.3      1 ZINC000026735751   -0.3000
21     C21    -4.8076    5.9206    5.9935 C.ar     1 ZINC000026735751    0.0300
22     C22    -3.7128    6.7490    5.8102 C.ar     1 ZINC000026735751   -0.0900
23     C23    -0.5453    7.6767    6.9772 C.3      1 ZINC000026735751    0.1800
24     H24    -0.6451    6.9286    7.7636 H        1 ZINC000026735751    0.1000
25     C25     0.7400    8.4395    7.1696 C.2      1 ZINC000026735751    0.5100
26     O26     1.5867    8.4298    6.3014 O.2      1 ZINC000026735751   -0.5000
27     N27     0.9486    9.1325    8.3066 N.am     1 ZINC000026735751   -0.7200
28     C28     2.1981    9.8741    8.4937 C.3      1 ZINC000026735751    0.1500
29     C29     2.0730   11.2555    7.8479 C.3      1 ZINC000026735751   -0.1300
30     C30     3.3779   12.0299    8.0432 C.3      1 ZINC000026735751   -0.1200
31     C31     3.6571   12.1897    9.5390 C.3      1 ZINC000026735751   -0.1200
32     C32     3.7823   10.8083   10.1849 C.3      1 ZINC000026735751   -0.1200
33     C33     2.4773   10.0338    9.9895 C.3      1 ZINC000026735751   -0.1200
34     C34    -1.7101    8.6309    7.0409 C.ar     1 ZINC000026735751   -0.1800
35     C35    -1.8802    9.5794    6.0494 C.ar     1 ZINC000026735751   -0.0600
36     C36    -2.9471   10.4552    6.1054 C.ar     1 ZINC000026735751   -0.2100
37     C37    -3.8485   10.3821    7.1575 C.ar     1 ZINC000026735751    0.1900
38     O38    -4.8991   11.2422    7.2146 O.3      1 ZINC000026735751   -0.2600
39     C39    -5.0883   12.1105    6.0956 C.3      1 ZINC000026735751   -0.0500
40     C40    -6.5353   12.5245    6.0200 C.2      1 ZINC000026735751    0.5200
41     O41    -7.3120   12.1890    6.8979 O.co2    1 ZINC000026735751   -0.7000
42     O42    -6.9293   13.1949    5.0810 O.co2    1 ZINC000026735751   -0.6800
43     C43    -4.2235   13.3341    6.2573 C.2      1 ZINC000026735751    0.5000
44     O44    -4.1664   14.1625    5.3645 O.co2    1 ZINC000026735751   -0.6900
45     O45    -3.5810   13.4956    7.2808 O.co2    1 ZINC000026735751   -0.6900
46     C46    -3.6758    9.4291    8.1508 C.ar     1 ZINC000026735751   -0.1700
47     C47    -2.6100    8.5525    8.0876 C.ar     1 ZINC000026735751   -0.0600
48     C48     1.7275    6.5117    7.4743 C.ar     1 ZINC000026735751   -0.0700
49     C49     2.9176    6.5241    8.1669 C.ar     1 ZINC000026735751   -0.1800
50     C50     7.6014    6.7442    8.0980 C.2      1 ZINC000026735751    0.5200
51     O51     8.6940    6.7790    7.5581 O.co2    1 ZINC000026735751   -0.6800
52     O52     7.4261    7.3221    9.1572 O.co2    1 ZINC000026735751   -0.7000
53     H53     6.3200    6.3475    6.4383 H        1 ZINC000026735751    0.0600
54     H54     5.0050    5.5177    5.6963 H        1 ZINC000026735751    0.1300
55     H55     2.8872    5.4833    4.4510 H        1 ZINC000026735751    0.1200
56     H56    -1.8695    8.3649    4.7918 H        1 ZINC000026735751    0.1200
57     H57    -1.1531    7.1776    3.6758 H        1 ZINC000026735751    0.0900
58     H58    -2.0997    5.0043    3.4147 H        1 ZINC000026735751    0.1400
59     H59    -4.0348    3.5182    3.7395 H        1 ZINC000026735751    0.1300
60     H60    -7.5359    4.7429    6.9643 H        1 ZINC000026735751    0.1200
61     H61    -6.0236    4.1227    7.7000 H        1 ZINC000026735751    0.0800
62     H62    -3.6170    7.6537    6.3922 H        1 ZINC000026735751    0.1500
63     H63     0.2714    9.1403    9.0010 H        1 ZINC000026735751    0.4000
64     H64     3.0181    9.3279    8.0273 H        1 ZINC000026735751    0.1000
65     H65     1.8740   11.1417    6.7822 H        1 ZINC000026735751    0.0700
66     H66     1.2530   11.8016    8.3142 H        1 ZINC000026735751    0.0600
67     H67     4.1979   11.4838    7.5769 H        1 ZINC000026735751    0.0600
68     H68     3.2888   13.0140    7.5832 H        1 ZINC000026735751    0.0600
69     H69     4.5868   12.7414    9.6782 H        1 ZINC000026735751    0.0600
70     H70     2.8372   12.7358   10.0054 H        1 ZINC000026735751    0.0600
71     H71     4.6022   10.2621    9.7185 H        1 ZINC000026735751    0.0800
72     H72     3.9812   10.9221   11.2505 H        1 ZINC000026735751    0.0600
73     H73     1.6574   10.5800   10.4558 H        1 ZINC000026735751    0.0600
74     H74     2.5665    9.0497   10.4496 H        1 ZINC000026735751    0.0700
75     H75    -1.1782    9.6359    5.2306 H        1 ZINC000026735751    0.1200
76     H76    -3.0791   11.1964    5.3311 H        1 ZINC000026735751    0.1300
77     H77    -4.8114   11.5884    5.1797 H        1 ZINC000026735751    0.0600
78     H78    -4.3760    9.3704    8.9710 H        1 ZINC000026735751    0.1300
79     H79    -2.4754    7.8102    8.8605 H        1 ZINC000026735751    0.1200
80     H80     0.8098    6.7897    7.9712 H        1 ZINC000026735751    0.1300
81     H81     2.9334    6.8154    9.2067 H        1 ZINC000026735751    0.1200
@<TRIPOS>BOND
1     1     2     ar
2     2     3     ar
3     2     4     1
4     4     5     1
5     4     50    1
6     4     53    1
7     5     6     1
8     6     49    ar
9     6     7     ar
10    7     8     ar
11    7     54    1
12    8     9     ar
13    8     55    1
14    9     10    1
15    9     48    ar
16    10    11    2
17    10    12    am
18    12    13    1
19    12    23    1
20    13    14    1
21    13    56    1
22    13    57    1
23    14    22    ar
24    14    15    ar
25    15    16    ar
26    15    58    1
27    16    17    ar
28    16    59    1
29    17    21    ar
30    17    18    1
31    18    19    1
32    19    20    1
33    19    60    1
34    19    61    1
35    20    21    1
36    21    22    ar
37    22    62    1
38    23    24    1
39    23    25    1
40    23    34    1
41    25    26    2
42    25    27    am
43    27    28    1
44    27    63    1
45    28    33    1
46    28    29    1
47    28    64    1
48    29    30    1
49    29    65    1
50    29    66    1
51    30    31    1
52    30    67    1
53    30    68    1
54    31    32    1
55    31    69    1
56    31    70    1
57    32    33    1
58    32    71    1
59    32    72    1
60    33    73    1
61    33    74    1
62    34    47    ar
63    34    35    ar
64    35    36    ar
65    35    75    1
66    36    37    ar
67    36    76    1
68    37    38    1
69    37    46    ar
70    38    39    1
71    39    40    1
72    39    43    1
73    39    77    1
74    40    41    ar
75    40    42    ar
76    43    44    ar
77    43    45    ar
78    46    47    ar
79    46    78    1
80    47    79    1
81    48    49    ar
82    48    80    1
83    49    81    1
84    50    51    ar
85    50    52    ar
@<TRIPOS>SUBSTRUCTURE
1   ZINC000026735751 1     RESIDUE    1   A     ZIN   1
