@<TRIPOS>MOLECULE
ZINC000526061652
50    52    1     0     0
SMALL
USER_CHARGES
@<TRIPOS>ATOM
1      C1     -0.0173    1.4248    0.0099 C.3      1 ZINC000526061652    0.0200
2      O2      0.0021   -0.0041    0.0020 O.3      1 ZINC000526061652   -0.3300
3      C3     -1.2010   -0.6378    0.0101 C.ar     1 ZINC000526061652    0.1200
4      C4     -2.3715    0.1016    0.0195 C.ar     1 ZINC000526061652   -0.1500
5      C5     -3.6035   -0.5493    0.0278 C.ar     1 ZINC000526061652    0.0200
6      C6     -4.8600    0.2367    0.0374 C.2      1 ZINC000526061652   -0.1700
7      C7     -5.6154    0.3415   -1.0858 C.2      1 ZINC000526061652    0.1800
8      N8     -6.7758    1.0542   -1.1175 N.am     1 ZINC000526061652   -0.5200
9      C9     -7.5304    1.1159   -2.3717 C.3      1 ZINC000526061652    0.0600
10     C10    -7.2567    1.7045   -0.0392 C.2      1 ZINC000526061652    0.5500
11     O11    -8.2994    2.3293   -0.1124 O.2      1 ZINC000526061652   -0.5000
12     C12    -6.5124    1.6516    1.2223 C.ar     1 ZINC000526061652   -0.2100
13     C13    -6.9429    2.2956    2.3793 C.ar     1 ZINC000526061652    0.1900
14     N14    -6.2263    2.2079    3.4821 N.ar     1 ZINC000526061652   -0.5000
15     C15    -5.0953    1.5246    3.5459 C.ar     1 ZINC000526061652    0.1300
16     C16    -4.5940    0.8600    2.4594 C.ar     1 ZINC000526061652   -0.1900
17     C17    -5.3086    0.9076    1.2622 C.ar     1 ZINC000526061652    0.0700
18     C18    -3.6499   -1.9468    0.0265 C.ar     1 ZINC000526061652    0.1200
19     O19    -4.8485   -2.5885    0.0341 O.3      1 ZINC000526061652   -0.3000
20     C20    -4.8194   -4.0172    0.0323 C.3      1 ZINC000526061652    0.0200
21     C21    -2.4725   -2.6759    0.0171 C.ar     1 ZINC000526061652   -0.1500
22     C22    -1.2533   -2.0249    0.0032 C.ar     1 ZINC000526061652   -0.1500
23     C23     0.0242   -2.8242   -0.0071 C.3      1 ZINC000526061652    0.0500
24     N24     0.5803   -2.8759    1.3516 N.4      1 ZINC000526061652   -0.3900
25     H25     0.6956   -1.9375    1.7038 H        1 ZINC000526061652    0.4300
26     C26    -0.3357   -3.6186    2.2276 C.3      1 ZINC000526061652   -0.0500
27     C27     1.8844   -3.5514    1.3216 C.3      1 ZINC000526061652   -0.0500
28     H28     1.0053    1.8021    0.0021 H        1 ZINC000526061652    0.1100
29     H29    -0.5445    1.7859   -0.8732 H        1 ZINC000526061652    0.0700
30     H30    -0.5275    1.7763    0.9067 H        1 ZINC000526061652    0.0600
31     H31    -2.3297    1.1808    0.0208 H        1 ZINC000526061652    0.1500
32     H32    -5.2848   -0.1570   -1.9851 H        1 ZINC000526061652    0.1600
33     H33    -8.2414    0.2905   -2.4089 H        1 ZINC000526061652    0.0800
34     H34    -8.0690    2.0620   -2.4255 H        1 ZINC000526061652    0.1000
35     H35    -6.8424    1.0410   -3.2138 H        1 ZINC000526061652    0.0900
36     H36    -7.8605    2.8652    2.3731 H        1 ZINC000526061652    0.1800
37     H37    -4.5533    1.4906    4.4794 H        1 ZINC000526061652    0.1600
38     H38    -3.6689    0.3071    2.5288 H        1 ZINC000526061652    0.1400
39     H39    -4.3045   -4.3690   -0.8617 H        1 ZINC000526061652    0.0600
40     H40    -4.2921   -4.3710    0.9182 H        1 ZINC000526061652    0.0600
41     H41    -5.8395   -4.4013    0.0389 H        1 ZINC000526061652    0.1100
42     H42    -2.5072   -3.7554    0.0164 H        1 ZINC000526061652    0.1500
43     H43    -0.1833   -3.8366   -0.3535 H        1 ZINC000526061652    0.1300
44     H44     0.7432   -2.3514   -0.6761 H        1 ZINC000526061652    0.1400
45     H45     0.0769   -3.6570    3.2358 H        1 ZINC000526061652    0.1200
46     H46    -1.3034   -3.1174    2.2500 H        1 ZINC000526061652    0.1200
47     H47    -0.4603   -4.6324    1.8472 H        1 ZINC000526061652    0.1200
48     H48     2.5641   -3.0004    0.6716 H        1 ZINC000526061652    0.1200
49     H49     2.2970   -3.5898    2.3297 H        1 ZINC000526061652    0.1200
50     H50     1.7598   -4.5652    0.9411 H        1 ZINC000526061652    0.1200
@<TRIPOS>BOND
1     1     2     1
2     1     28    1
3     1     29    1
4     1     30    1
5     2     3     1
6     3     22    ar
7     3     4     ar
8     4     5     ar
9     4     31    1
10    5     6     1
11    5     18    ar
12    6     17    1
13    6     7     2
14    7     8     1
15    7     32    1
16    8     9     1
17    8     10    am
18    9     33    1
19    9     34    1
20    9     35    1
21    10    11    2
22    10    12    1
23    12    17    ar
24    12    13    ar
25    13    14    ar
26    13    36    1
27    14    15    ar
28    15    16    ar
29    15    37    1
30    16    17    ar
31    16    38    1
32    18    19    1
33    18    21    ar
34    19    20    1
35    20    39    1
36    20    40    1
37    20    41    1
38    21    22    ar
39    21    42    1
40    22    23    1
41    23    24    1
42    23    43    1
43    23    44    1
44    24    25    1
45    24    26    1
46    24    27    1
47    26    45    1
48    26    46    1
49    26    47    1
50    27    48    1
51    27    49    1
52    27    50    1
@<TRIPOS>SUBSTRUCTURE
1   ZINC000526061652 1     RESIDUE    1   A     ZIN   1
