@<TRIPOS>MOLECULE
ZINC000071319188
47    50    1     0     0
SMALL
USER_CHARGES
@<TRIPOS>ATOM
1      C1     -0.0187    1.5258    0.0104 C.3      1 ZINC000071319188   -0.1600
2      C2      0.0021   -0.0041    0.0020 C.3      1 ZINC000071319188    0.0700
3      O3      0.6709   -0.4649   -1.1737 O.3      1 ZINC000071319188   -0.3600
4      C4      0.7760   -1.8009   -1.3350 C.2      1 ZINC000071319188    0.5500
5      O5      0.3115   -2.5533   -0.4987 O.2      1 ZINC000071319188   -0.5100
6      C6      1.4265   -2.3269   -2.4770 C.2      1 ZINC000071319188   -0.1600
7      C7      1.6082   -3.6661   -2.7862 C.2      1 ZINC000071319188    0.1500
8      N8      2.2603   -3.7402   -3.9347 N.2      1 ZINC000071319188   -0.5000
9      C9      2.5137   -2.5145   -4.3913 C.2      1 ZINC000071319188    0.2600
10     C10     3.1707   -2.0668   -5.5528 C.2      1 ZINC000071319188   -0.1000
11     C11     3.2943   -0.7313   -5.7813 C.2      1 ZINC000071319188   -0.0600
12     C12     2.7615    0.1854   -4.8499 C.2      1 ZINC000071319188   -0.0300
13     C13     2.8888    1.6450   -5.0869 C.ar     1 ZINC000071319188   -0.0700
14     C14     1.7560    2.4287   -5.2970 C.ar     1 ZINC000071319188    0.0100
15     N15     1.8629    3.7247   -5.5079 N.ar     1 ZINC000071319188   -0.4400
16     C16     3.0319    4.3334   -5.5297 C.ar     1 ZINC000071319188   -0.0300
17     C17     4.2104    3.6241   -5.3289 C.ar     1 ZINC000071319188    0.2400
18     N18     5.4441    4.2796   -5.3542 N.pl3    1 ZINC000071319188   -1.0800
19     S19     5.5089    5.9120   -5.6246 S.o2     1 ZINC000071319188    2.6100
20     O20     5.0667    6.1155   -6.9597 O.2      1 ZINC000071319188   -1.0200
21     O21     4.8970    6.5296   -4.5006 O.2      1 ZINC000071319188   -1.0200
22     C22     7.2072    6.3800   -5.5862 C.ar     1 ZINC000071319188   -0.6200
23     C23     7.7936    6.7566   -4.3924 C.ar     1 ZINC000071319188   -0.0200
24     C24     9.1259    7.1237   -4.3622 C.ar     1 ZINC000071319188   -0.1500
25     C25     9.8720    7.1139   -5.5259 C.ar     1 ZINC000071319188   -0.0800
26     C26     9.2859    6.7366   -6.7196 C.ar     1 ZINC000071319188   -0.1500
27     C27     7.9547    6.3653   -6.7490 C.ar     1 ZINC000071319188   -0.0200
28     C28     4.1451    2.2545   -5.0968 C.ar     1 ZINC000071319188   -0.1200
29     C29     2.1291   -0.2728   -3.7317 C.2      1 ZINC000071319188    0.0700
30     N30     2.0019   -1.6063   -3.5090 N.pl3    1 ZINC000071319188   -0.3200
31     H31     1.0039    1.9031    0.0027 H        1 ZINC000071319188    0.0700
32     H32    -0.5459    1.8868   -0.8726 H        1 ZINC000071319188    0.0700
33     H33    -0.5289    1.8773    0.9072 H        1 ZINC000071319188    0.0800
34     H34     0.5293   -0.3651    0.8851 H        1 ZINC000071319188    0.0700
35     H35    -1.0205   -0.3814    0.0098 H        1 ZINC000071319188    0.0700
36     H36     1.2754   -4.5040   -2.1917 H        1 ZINC000071319188    0.2000
37     H37     3.5744   -2.7786   -6.2576 H        1 ZINC000071319188    0.1600
38     H38     3.7966   -0.3753   -6.6686 H        1 ZINC000071319188    0.1500
39     H39     0.7791    1.9683   -5.2873 H        1 ZINC000071319188    0.1400
40     H40     3.0747    5.3980   -5.7064 H        1 ZINC000071319188    0.1300
41     H41     7.2106    6.7642   -3.4832 H        1 ZINC000071319188    0.1400
42     H42     9.5838    7.4186   -3.4296 H        1 ZINC000071319188    0.1300
43     H43    10.9128    7.4015   -5.5025 H        1 ZINC000071319188    0.1200
44     H44     9.8687    6.7292   -7.6288 H        1 ZINC000071319188    0.1300
45     H45     7.4967    6.0704   -7.6816 H        1 ZINC000071319188    0.1400
46     H46     5.0430    1.6759   -4.9373 H        1 ZINC000071319188    0.1300
47     H47     1.7224    0.4304   -3.0200 H        1 ZINC000071319188    0.1800
@<TRIPOS>BOND
1     1     2     1
2     1     31    1
3     1     32    1
4     1     33    1
5     2     3     1
6     2     34    1
7     2     35    1
8     3     4     1
9     4     5     2
10    4     6     1
11    6     30    1
12    6     7     2
13    7     8     1
14    7     36    1
15    8     9     2
16    9     30    1
17    9     10    1
18    10    11    2
19    10    37    1
20    11    12    1
21    11    38    1
22    12    13    1
23    12    29    2
24    13    28    ar
25    13    14    ar
26    14    15    ar
27    14    39    1
28    15    16    ar
29    16    17    ar
30    16    40    1
31    17    18    1
32    17    28    ar
33    18    19    1
34    19    20    2
35    19    21    2
36    19    22    1
37    22    27    ar
38    22    23    ar
39    23    24    ar
40    23    41    1
41    24    25    ar
42    24    42    1
43    25    26    ar
44    25    43    1
45    26    27    ar
46    26    44    1
47    27    45    1
48    28    46    1
49    29    30    1
50    29    47    1
@<TRIPOS>SUBSTRUCTURE
1   ZINC000071319188 1     RESIDUE    1   A     ZIN   1
