@<TRIPOS>MOLECULE
ZINC000068203488
49    52    1     0     0
SMALL
USER_CHARGES
@<TRIPOS>ATOM
1      N1     -0.0167    1.3826    0.0096 N.pl3    1 ZINC000068203488   -0.8300
2      C2      0.0021   -0.0041    0.0020 C.ar     1 ZINC000068203488    0.4300
3      C3     -1.1999   -0.7077    0.0040 C.ar     1 ZINC000068203488   -0.2000
4      C4     -1.1732   -2.0874   -0.0036 C.ar     1 ZINC000068203488   -0.0400
5      C5     -2.4524   -2.8841   -0.0023 C.3      1 ZINC000068203488    0.5200
6      F6     -3.5455   -2.0110    0.0073 F        1 ZINC000068203488   -0.1800
7      F7     -2.5046   -3.6842   -1.1487 F        1 ZINC000068203488   -0.1600
8      F8     -2.4945   -3.6966    1.1358 F        1 ZINC000068203488   -0.1600
9      C9      0.0718   -2.7295   -0.0131 C.ar     1 ZINC000068203488   -0.1400
10     C10     0.1539   -4.2082   -0.0220 C.ar     1 ZINC000068203488    0.4600
11     N11    -0.9596   -4.9367   -0.0266 N.ar     1 ZINC000068203488   -0.6000
12     C12    -0.8851   -6.2639   -0.0345 C.ar     1 ZINC000068203488    0.5700
13     N13    -2.0400   -7.0197   -0.0397 N.3      1 ZINC000068203488   -0.4500
14     C14    -2.0640   -7.9374   -1.1880 C.3      1 ZINC000068203488    0.0300
15     C15    -3.3299   -8.7958   -1.1220 C.3      1 ZINC000068203488    0.0600
16     O16    -4.4771   -7.9426   -1.0868 O.3      1 ZINC000068203488   -0.3800
17     C17    -4.4867   -7.0360    0.0193 C.3      1 ZINC000068203488    0.0600
18     C18    -3.2324   -6.1598   -0.0351 C.3      1 ZINC000068203488    0.0100
19     N19     0.3013   -6.8633   -0.0380 N.ar     1 ZINC000068203488   -0.5800
20     C20     1.4140   -6.1362   -0.0335 C.ar     1 ZINC000068203488    0.5700
21     N21     2.6455   -6.7596   -0.0370 N.3      1 ZINC000068203488   -0.4500
22     C22     2.7721   -7.6826    1.1002 C.3      1 ZINC000068203488    0.0300
23     C23     4.1252   -8.3948    1.0243 C.3      1 ZINC000068203488    0.0600
24     O24     5.1708   -7.4194    0.9997 O.3      1 ZINC000068203488   -0.3800
25     C25     5.0788   -6.5043   -0.0955 C.3      1 ZINC000068203488    0.0600
26     C26     3.7354   -5.7730   -0.0310 C.3      1 ZINC000068203488    0.0300
27     N27     1.3411   -4.8089   -0.0310 N.ar     1 ZINC000068203488   -0.6000
28     C28     1.2318   -1.9576   -0.0145 C.ar     1 ZINC000068203488    0.2300
29     N29     1.1636   -0.6423   -0.0125 N.ar     1 ZINC000068203488   -0.5300
30     H30     0.8166    1.8790    0.0044 H        1 ZINC000068203488    0.4100
31     H31    -0.8633    1.8561    0.0162 H        1 ZINC000068203488    0.4200
32     H32    -2.1420   -0.1797    0.0118 H        1 ZINC000068203488    0.1600
33     H33    -2.0621   -7.3621   -2.1138 H        1 ZINC000068203488    0.0600
34     H34    -1.1853   -8.5817   -1.1573 H        1 ZINC000068203488    0.1100
35     H35    -3.3806   -9.4378   -2.0014 H        1 ZINC000068203488    0.1100
36     H36    -3.3061   -9.4109   -0.2225 H        1 ZINC000068203488    0.0700
37     H37    -5.3740   -6.4052   -0.0348 H        1 ZINC000068203488    0.1100
38     H38    -4.4965   -7.6000    0.9520 H        1 ZINC000068203488    0.0600
39     H39    -3.2067   -5.5065    0.8370 H        1 ZINC000068203488    0.1100
40     H40    -3.2493   -5.5561   -0.9425 H        1 ZINC000068203488    0.0800
41     H41     2.7075   -7.1222    2.0328 H        1 ZINC000068203488    0.0600
42     H42     1.9701   -8.4198    1.0616 H        1 ZINC000068203488    0.1100
43     H43     4.2475   -9.0376    1.8960 H        1 ZINC000068203488    0.1100
44     H44     4.1687   -8.9980    0.1174 H        1 ZINC000068203488    0.0700
45     H45     5.8909   -5.7799   -0.0337 H        1 ZINC000068203488    0.1100
46     H46     5.1501   -7.0525   -1.0349 H        1 ZINC000068203488    0.0600
47     H47     3.6366   -5.1162   -0.8952 H        1 ZINC000068203488    0.1000
48     H48     3.6863   -5.1820    0.8836 H        1 ZINC000068203488    0.0700
49     H49     2.1966   -2.4428   -0.0218 H        1 ZINC000068203488    0.1800
@<TRIPOS>BOND
1     1     2     1
2     1     30    1
3     1     31    1
4     2     29    ar
5     2     3     ar
6     3     4     ar
7     3     32    1
8     4     5     1
9     4     9     ar
10    5     6     1
11    5     7     1
12    5     8     1
13    9     10    1
14    9     28    ar
15    10    27    ar
16    10    11    ar
17    11    12    ar
18    12    13    1
19    12    19    ar
20    13    18    1
21    13    14    1
22    14    15    1
23    14    33    1
24    14    34    1
25    15    16    1
26    15    35    1
27    15    36    1
28    16    17    1
29    17    18    1
30    17    37    1
31    17    38    1
32    18    39    1
33    18    40    1
34    19    20    ar
35    20    21    1
36    20    27    ar
37    21    26    1
38    21    22    1
39    22    23    1
40    22    41    1
41    22    42    1
42    23    24    1
43    23    43    1
44    23    44    1
45    24    25    1
46    25    26    1
47    25    45    1
48    25    46    1
49    26    47    1
50    26    48    1
51    28    29    ar
52    28    49    1
@<TRIPOS>SUBSTRUCTURE
1   ZINC000068203488 1     RESIDUE    1   A     ZIN   1
