@<TRIPOS>MOLECULE
ZINC000003925712
102   105   1     0     0
SMALL
USER_CHARGES
@<TRIPOS>ATOM
1      N1     -0.0160    1.3277    0.0093 N.pl3    1 ZINC000003925712   -0.8000
2      C2      0.0021   -0.0041    0.0020 C.cat    1 ZINC000003925712    0.7400
3      N3      1.1645   -0.6543   -0.0126 N.pl3    1 ZINC000003925712   -0.7900
4      H4      1.1776   -1.6242   -0.0179 H        1 ZINC000003925712    0.4400
5      H5      1.9978   -0.1579   -0.0179 H        1 ZINC000003925712    0.4400
6      N6     -1.1731   -0.7040    0.0095 N.pl3    1 ZINC000003925712   -0.6900
7      C7     -2.4516    0.0111    0.0255 C.3      1 ZINC000003925712    0.1000
8      C8     -3.6008   -0.9989    0.0311 C.3      1 ZINC000003925712   -0.1300
9      C9     -4.9360   -0.2520    0.0478 C.3      1 ZINC000003925712   -0.1200
10     C10    -6.0853   -1.2619    0.0534 C.3      1 ZINC000003925712    0.1400
11     H11    -5.9628   -1.9500    0.8898 H        1 ZINC000003925712    0.1000
12     N12    -6.0848   -2.0146   -1.2069 N.am     1 ZINC000003925712   -0.7200
13     C13    -6.5128   -1.4151   -2.3350 C.2      1 ZINC000003925712    0.5200
14     O14    -6.8352   -0.2462   -2.3110 O.2      1 ZINC000003925712   -0.4800
15     C15    -6.5929   -2.1872   -3.6259 C.3      1 ZINC000003925712    0.1500
16     H16    -5.7814   -1.8827   -4.2868 H        1 ZINC000003925712    0.1100
17     C17    -6.4875   -3.6861   -3.3374 C.3      1 ZINC000003925712   -0.1000
18     C18    -6.4446   -4.4462   -4.6379 C.ar     1 ZINC000003925712   -0.0900
19     C19    -7.6205   -4.8717   -5.2277 C.ar     1 ZINC000003925712   -0.0900
20     C20    -7.5839   -5.5686   -6.4199 C.ar     1 ZINC000003925712   -0.1400
21     C21    -6.3658   -5.8412   -7.0256 C.ar     1 ZINC000003925712    0.1100
22     O22    -6.3272   -6.5262   -8.1986 O.3      1 ZINC000003925712   -0.5000
23     C23    -5.1874   -5.4128   -6.4319 C.ar     1 ZINC000003925712   -0.1400
24     C24    -5.2297   -4.7120   -5.2422 C.ar     1 ZINC000003925712   -0.1000
25     N25    -7.8941   -1.8922   -4.2657 N.am     1 ZINC000003925712   -0.7200
26     C26    -9.0001   -2.1736   -3.5187 C.2      1 ZINC000003925712    0.5100
27     O27    -8.8879   -2.6496   -2.4089 O.2      1 ZINC000003925712   -0.4800
28     C28   -10.3629   -1.8851   -4.0918 C.3      1 ZINC000003925712    0.1000
29     N29   -11.3039   -1.6508   -2.9660 N.am     1 ZINC000003925712   -0.7300
30     C30   -11.0171   -0.5405   -2.2150 C.2      1 ZINC000003925712    0.5200
31     O31   -10.0646    0.1608   -2.4833 O.2      1 ZINC000003925712   -0.4800
32     C32   -11.9124   -0.2110   -1.0487 C.3      1 ZINC000003925712    0.1400
33     H33   -12.3031   -1.1321   -0.6163 H        1 ZINC000003925712    0.0900
34     C34   -13.0732    0.6649   -1.5246 C.3      1 ZINC000003925712   -0.0800
35     C35   -14.0321    0.8912   -0.3843 C.ar     1 ZINC000003925712   -0.0700
36     C36   -15.0826   -0.0018   -0.1836 C.ar     1 ZINC000003925712   -0.1100
37     C37   -15.9664    0.1735    0.8369 C.ar     1 ZINC000003925712   -0.0900
38     C38   -15.8198    1.2704    1.7025 C.ar     1 ZINC000003925712   -0.0500
39     C39   -16.7119    1.4843    2.7674 C.ar     1 ZINC000003925712   -0.1000
40     C40   -16.5384    2.5577    3.5858 C.ar     1 ZINC000003925712   -0.1200
41     C41   -15.4876    3.4510    3.3849 C.ar     1 ZINC000003925712   -0.1100
42     C42   -14.6044    3.2760    2.3644 C.ar     1 ZINC000003925712   -0.1200
43     C43   -14.7511    2.1790    1.4983 C.ar     1 ZINC000003925712   -0.0500
44     C44   -13.8557    1.9619    0.4375 C.ar     1 ZINC000003925712   -0.1100
45     N45   -11.1221    0.5174   -0.0329 N.am     1 ZINC000003925712   -0.7200
46     C46    -9.9894   -0.1065    0.3985 C.2      1 ZINC000003925712    0.5100
47     O47    -9.6835   -1.1952   -0.0397 O.2      1 ZINC000003925712   -0.4700
48     C48    -9.1216    0.5733    1.4264 C.3      1 ZINC000003925712    0.1300
49     H49    -9.5753    0.4773    2.4128 H        1 ZINC000003925712    0.1100
50     C50    -8.9639    2.0534    1.0721 C.3      1 ZINC000003925712   -0.1200
51     C51    -8.1875    2.7637    2.1828 C.3      1 ZINC000003925712   -0.1300
52     C52    -8.0298    4.2437    1.8285 C.3      1 ZINC000003925712    0.0900
53     N53    -7.2864    4.9239    2.8920 N.pl3    1 ZINC000003925712   -0.7000
54     C54    -7.0224    6.2624    2.7935 C.cat    1 ZINC000003925712    0.7400
55     N55    -7.4411    6.9474    1.7307 N.pl3    1 ZINC000003925712   -0.7900
56     N56    -6.3465    6.8808    3.7604 N.pl3    1 ZINC000003925712   -0.8000
57     H57    -6.0415    6.3820    4.5343 H        1 ZINC000003925712    0.4400
58     H58    -6.1592    7.8300    3.6905 H        1 ZINC000003925712    0.4400
59     N59    -7.7919   -0.0900    1.4188 N.am     1 ZINC000003925712   -0.7500
60     C60    -7.3977   -0.5329    0.1871 C.2      1 ZINC000003925712    0.4700
61     O61    -8.0936   -0.3415   -0.7876 O.2      1 ZINC000003925712   -0.3800
62     H62     0.8174    1.8241    0.0041 H        1 ZINC000003925712    0.4400
63     H63    -0.8625    1.8013    0.0159 H        1 ZINC000003925712    0.4400
64     H64    -1.1599   -1.6739    0.0041 H        1 ZINC000003925712    0.4400
65     H65    -2.5093    0.6321    0.9194 H        1 ZINC000003925712    0.0900
66     H66    -2.5263    0.6417   -0.8604 H        1 ZINC000003925712    0.0900
67     H67    -3.5431   -1.6199   -0.8628 H        1 ZINC000003925712    0.0900
68     H68    -3.5261   -1.6294    0.9170 H        1 ZINC000003925712    0.0800
69     H69    -4.9938    0.3691    0.9418 H        1 ZINC000003925712    0.0700
70     H70    -5.0108    0.3786   -0.8381 H        1 ZINC000003925712    0.0900
71     H71    -5.7789   -2.9349   -1.2274 H        1 ZINC000003925712    0.4000
72     H72    -5.5777   -3.8839   -2.7707 H        1 ZINC000003925712    0.0800
73     H73    -7.3534   -4.0062   -2.7578 H        1 ZINC000003925712    0.1100
74     H74    -8.5685   -4.6592   -4.7559 H        1 ZINC000003925712    0.1200
75     H75    -8.5026   -5.9014   -6.8799 H        1 ZINC000003925712    0.1300
76     H76    -6.3675   -5.9637   -8.9841 H        1 ZINC000003925712    0.3900
77     H77    -4.2379   -5.6240   -6.9013 H        1 ZINC000003925712    0.1300
78     H78    -4.3126   -4.3779   -4.7798 H        1 ZINC000003925712    0.1200
79     H79    -7.9566   -1.5224   -5.1602 H        1 ZINC000003925712    0.4100
80     H80   -10.3158   -0.9969   -4.7219 H        1 ZINC000003925712    0.0900
81     H81   -10.7010   -2.7370   -4.6817 H        1 ZINC000003925712    0.1100
82     H82   -12.0566   -2.2332   -2.7789 H        1 ZINC000003925712    0.4100
83     H83   -12.6869    1.6237   -1.8703 H        1 ZINC000003925712    0.0900
84     H84   -13.5928    0.1663   -2.3428 H        1 ZINC000003925712    0.1000
85     H85   -15.1977   -0.8456   -0.8478 H        1 ZINC000003925712    0.1300
86     H86   -16.7761   -0.5266    0.9801 H        1 ZINC000003925712    0.1300
87     H87   -17.5310    0.8006    2.9350 H        1 ZINC000003925712    0.1300
88     H88   -17.2255    2.7199    4.4031 H        1 ZINC000003925712    0.1300
89     H89   -15.3728    4.2951    4.0488 H        1 ZINC000003925712    0.1200
90     H90   -13.7952    3.9767    2.2208 H        1 ZINC000003925712    0.1200
91     H91   -13.0341    2.6432    0.2727 H        1 ZINC000003925712    0.1200
92     H92   -11.3930    1.3851    0.3056 H        1 ZINC000003925712    0.4000
93     H93    -8.4199    2.1460    0.1321 H        1 ZINC000003925712    0.0900
94     H94    -9.9486    2.5091    0.9685 H        1 ZINC000003925712    0.0800
95     H95    -8.7315    2.6711    3.1228 H        1 ZINC000003925712    0.0800
96     H96    -7.2028    2.3080    2.2864 H        1 ZINC000003925712    0.0800
97     H97    -7.4858    4.3364    0.8885 H        1 ZINC000003925712    0.0900
98     H98    -9.0145    4.6995    1.7249 H        1 ZINC000003925712    0.0900
99     H99    -6.9814    4.4251    3.6659 H        1 ZINC000003925712    0.4300
100    H100   -7.9334    6.4971    1.0266 H        1 ZINC000003925712    0.4400
101    H101   -7.2539    7.8966    1.6609 H        1 ZINC000003925712    0.4400
102    H102   -7.2515   -0.1998    2.2168 H        1 ZINC000003925712    0.4000
@<TRIPOS>BOND
1     1     2     ar
2     1     62    1
3     1     63    1
4     2     3     ar
5     2     6     ar
6     3     4     1
7     3     5     1
8     6     7     1
9     6     64    1
10    7     8     1
11    7     65    1
12    7     66    1
13    8     9     1
14    8     67    1
15    8     68    1
16    9     10    1
17    9     69    1
18    9     70    1
19    10    11    1
20    10    60    1
21    10    12    1
22    12    13    am
23    12    71    1
24    13    14    2
25    13    15    1
26    15    16    1
27    15    17    1
28    15    25    1
29    17    18    1
30    17    72    1
31    17    73    1
32    18    24    ar
33    18    19    ar
34    19    20    ar
35    19    74    1
36    20    21    ar
37    20    75    1
38    21    22    1
39    21    23    ar
40    22    76    1
41    23    24    ar
42    23    77    1
43    24    78    1
44    25    26    am
45    25    79    1
46    26    27    2
47    26    28    1
48    28    29    1
49    28    80    1
50    28    81    1
51    29    30    am
52    29    82    1
53    30    31    2
54    30    32    1
55    32    33    1
56    32    34    1
57    32    45    1
58    34    35    1
59    34    83    1
60    34    84    1
61    35    44    ar
62    35    36    ar
63    36    37    ar
64    36    85    1
65    37    38    ar
66    37    86    1
67    38    43    ar
68    38    39    ar
69    39    40    ar
70    39    87    1
71    40    41    ar
72    40    88    1
73    41    42    ar
74    41    89    1
75    42    43    ar
76    42    90    1
77    43    44    ar
78    44    91    1
79    45    46    am
80    45    92    1
81    46    47    2
82    46    48    1
83    48    49    1
84    48    50    1
85    48    59    1
86    50    51    1
87    50    93    1
88    50    94    1
89    51    52    1
90    51    95    1
91    51    96    1
92    52    53    1
93    52    97    1
94    52    98    1
95    53    54    ar
96    53    99    1
97    54    55    ar
98    54    56    ar
99    55    100   1
100   55    101   1
101   56    57    1
102   56    58    1
103   59    60    am
104   59    102   1
105   60    61    2
@<TRIPOS>SUBSTRUCTURE
1   ZINC000003925712 1     RESIDUE    1   A     ZIN   1
