@<TRIPOS>MOLECULE
ZINC000068198782
  41   44    0    0    0
SMALL
USER_CHARGES
NO_NAME
@<TRIPOS>ATOM
    1 C1       -0.0187     1.5258     0.0104 C.3    1 <0>      -0.1400
    2 C2        0.0021    -0.0041     0.0020 C.3    1 <0>      -0.4600
    3 S3        0.8511    -0.5891    -1.4904 S.o    1 <0>       1.3300
    4 O4        0.0364    -0.3393    -2.6275 O.2    1 <0>      -0.8500
    5 C5        0.7772    -2.3419    -1.3272 C.ar   1 <0>      -0.4600
    6 C6        1.7899    -3.0158    -0.6684 C.ar   1 <0>      -0.0400
    7 C7        1.7375    -4.3886    -0.5375 C.ar   1 <0>      -0.1300
    8 C8        0.6609    -5.0962    -1.0702 C.ar   1 <0>       0.0200
    9 C9        0.5985    -6.5711    -0.9324 C.2    1 <0>      -0.1400
   10 C10       1.5773    -7.4589    -1.2210 C.2    1 <0>       0.0400
   11 O11       1.1530    -8.7078    -0.9680 O.3    1 <0>      -0.1800
   12 C12      -0.1136    -8.7079    -0.5045 C.ar   1 <0>       0.0800
   13 C13      -0.9796    -9.7218    -0.1082 C.ar   1 <0>      -0.1000
   14 C14      -2.2378    -9.4210     0.3286 C.ar   1 <0>      -0.0600
   15 C15      -2.6754    -8.0927     0.3848 C.ar   1 <0>      -0.0400
   16 C16      -4.0402    -7.7827     0.8605 C.2    1 <0>       0.2100
   17 N17      -4.5785    -6.5896     0.9579 N.2    1 <0>      -0.2700
   18 N18      -5.7787    -6.7011     1.4081 N.2    1 <0>      -0.2800
   19 C19      -6.0518    -7.9590     1.6140 C.2    1 <0>       0.1700
   20 C20      -7.3518    -8.5130     2.1375 C.3    1 <0>      -0.0600
   21 O21      -4.9660    -8.6731     1.2695 O.3    1 <0>      -0.2200
   22 C22      -1.8234    -7.0638    -0.0075 C.ar   1 <0>      -0.0100
   23 C23      -0.5412    -7.3708    -0.4463 C.ar   1 <0>      -0.1200
   24 C24      -0.3569    -4.4116    -1.7326 C.ar   1 <0>      -0.1200
   25 C25      -0.2961    -3.0383    -1.8532 C.ar   1 <0>      -0.0500
   26 H26       1.0039     1.9031     0.0027 H      1 <0>       0.0700
   27 H27      -0.5459     1.8868    -0.8726 H      1 <0>       0.0600
   28 H28      -0.5289     1.8773     0.9072 H      1 <0>       0.0700
   29 H29       0.5293    -0.3651     0.8851 H      1 <0>       0.1200
   30 H30      -1.0205    -0.3814     0.0098 H      1 <0>       0.0900
   31 H31       2.6235    -2.4666    -0.2561 H      1 <0>       0.1400
   32 H32       2.5290    -4.9138    -0.0236 H      1 <0>       0.1300
   33 H33       2.5556    -7.2015    -1.5995 H      1 <0>       0.2200
   34 H34      -0.6555   -10.7513    -0.1466 H      1 <0>       0.1500
   35 H35      -2.9020   -10.2161     0.6336 H      1 <0>       0.1500
   36 H36      -8.0183    -8.7270     1.3020 H      1 <0>       0.1000
   37 H37      -7.1583    -9.4311     2.6924 H      1 <0>       0.1000
   38 H38      -7.8191    -7.7816     2.7969 H      1 <0>       0.1100
   39 H39      -2.1545    -6.0366     0.0328 H      1 <0>       0.1500
   40 H40      -1.1932    -4.9547    -2.1475 H      1 <0>       0.1300
   41 H41      -1.0842    -2.5068    -2.3659 H      1 <0>       0.1300
@<TRIPOS>BOND
   1    1    2 1
   2    1   26 1
   3    1   27 1
   4    1   28 1
   5    2    3 1
   6    2   29 1
   7    2   30 1
   8    3    4 2
   9    3    5 1
  10    5   25 ar
  11    5    6 ar
  12    6    7 ar
  13    6   31 1
  14    7    8 ar
  15    7   32 1
  16    8    9 1
  17    8   24 ar
  18    9   23 1
  19    9   10 2
  20   10   11 1
  21   10   33 1
  22   11   12 1
  23   12   23 ar
  24   12   13 ar
  25   13   14 ar
  26   13   34 1
  27   14   15 ar
  28   14   35 1
  29   15   16 1
  30   15   22 ar
  31   16   21 1
  32   16   17 2
  33   17   18 1
  34   18   19 2
  35   19   20 1
  36   19   21 1
  37   20   36 1
  38   20   37 1
  39   20   38 1
  40   22   23 ar
  41   22   39 1
  42   24   25 ar
  43   24   40 1
  44   25   41 1
