@<TRIPOS>MOLECULE
ZINC000071318334
58    61    1     0     0
SMALL
USER_CHARGES
@<TRIPOS>ATOM
1      C1     -0.3072    1.5796   -1.0526 C.3      1 ZINC000071318334   -0.1700
2      C2     -0.3296    0.0578   -1.2093 C.3      1 ZINC000071318334    0.1300
3      N3     -1.5293   -0.4819   -0.5644 N.am     1 ZINC000071318334   -0.7400
4      C4     -1.7614   -1.8095   -0.5762 C.2      1 ZINC000071318334    0.7000
5      O5     -0.9751   -2.5592   -1.1221 O.2      1 ZINC000071318334   -0.5700
6      N6     -2.8650   -2.3059    0.0170 N.am     1 ZINC000071318334   -0.6900
7      C7     -3.1558   -3.6694   -0.0777 C.ar     1 ZINC000071318334    0.1900
8      C8     -2.1236   -4.6005   -0.0807 C.ar     1 ZINC000071318334   -0.1300
9      C9     -2.4078   -5.9458   -0.1741 C.ar     1 ZINC000071318334   -0.0500
10     C10    -3.7324   -6.3728   -0.2656 C.ar     1 ZINC000071318334   -0.0700
11     C11    -4.0408   -7.8191   -0.3656 C.ar     1 ZINC000071318334    0.4000
12     N12    -5.3117   -8.1989   -0.4570 N.ar     1 ZINC000071318334   -0.5400
13     C13    -5.6295   -9.4828   -0.5482 C.ar     1 ZINC000071318334    0.4200
14     N14    -6.9552   -9.8738   -0.6438 N.3      1 ZINC000071318334   -0.4700
15     C15    -7.1796  -10.6851   -1.8490 C.3      1 ZINC000071318334    0.0200
16     C16    -8.6397  -11.1444   -1.8839 C.3      1 ZINC000071318334    0.0700
17     O17    -9.4956   -9.9997   -1.8347 O.3      1 ZINC000071318334   -0.3800
18     C18    -9.3042   -9.1872   -0.6734 C.3      1 ZINC000071318334    0.0600
19     C19    -7.8508   -8.7081   -0.6263 C.3      1 ZINC000071318334    0.0300
20     C20    -4.6016  -10.4413   -0.5470 C.ar     1 ZINC000071318334   -0.2900
21     S21    -4.6434  -12.1956   -0.6495 S.3      1 ZINC000071318334    0.1700
22     C22    -2.8925  -12.2883   -0.5587 C.2      1 ZINC000071318334   -0.1600
23     C23    -2.1005  -13.5700   -0.5888 C.3      1 ZINC000071318334    0.2000
24     C24    -2.9323  -14.6981    0.0247 C.3      1 ZINC000071318334   -0.1500
25     C25    -1.7539  -13.9213   -2.0371 C.3      1 ZINC000071318334   -0.1800
26     O26    -0.8962  -13.4035    0.1622 O.3      1 ZINC000071318334   -0.5400
27     C27    -2.3629  -11.0793   -0.4605 C.2      1 ZINC000071318334   -0.1200
28     C28    -3.2753  -10.0119   -0.4496 C.ar     1 ZINC000071318334    0.2000
29     N29    -3.0456   -8.6826   -0.3660 N.ar     1 ZINC000071318334   -0.5100
30     C30    -4.7662   -5.4367   -0.2623 C.ar     1 ZINC000071318334   -0.0500
31     C31    -4.4771   -4.0928   -0.1630 C.ar     1 ZINC000071318334   -0.1600
32     H32     0.5854    1.9811   -1.5324 H        1 ZINC000071318334    0.0800
33     H33    -1.1944    2.0061   -1.5206 H        1 ZINC000071318334    0.0600
34     H34    -0.2965    1.8356    0.0069 H        1 ZINC000071318334    0.0600
35     H35    -0.3403   -0.1983   -2.2687 H        1 ZINC000071318334    0.0700
36     H36     0.5575   -0.3688   -0.7413 H        1 ZINC000071318334    0.0700
37     H37    -2.1566    0.1163   -0.1289 H        1 ZINC000071318334    0.4000
38     H38    -3.4575   -1.7168    0.5098 H        1 ZINC000071318334    0.4100
39     H39    -1.0980   -4.2693   -0.0103 H        1 ZINC000071318334    0.1500
40     H40    -1.6055   -6.6688   -0.1768 H        1 ZINC000071318334    0.1400
41     H41    -6.9647  -10.0878   -2.7351 H        1 ZINC000071318334    0.0700
42     H42    -6.5245  -11.5560   -1.8287 H        1 ZINC000071318334    0.0900
43     H43    -8.8251  -11.6982   -2.8042 H        1 ZINC000071318334    0.1100
44     H44    -8.8401  -11.7858   -1.0257 H        1 ZINC000071318334    0.0700
45     H45    -9.9702   -8.3255   -0.7183 H        1 ZINC000071318334    0.1100
46     H46    -9.5239   -9.7717    0.2200 H        1 ZINC000071318334    0.0600
47     H47    -7.6857   -8.1358    0.2866 H        1 ZINC000071318334    0.1000
48     H48    -7.6466   -8.0792   -1.4928 H        1 ZINC000071318334    0.0700
49     H49    -3.8509  -14.8251   -0.5482 H        1 ZINC000071318334    0.0700
50     H50    -2.3594  -15.6251    0.0028 H        1 ZINC000071318334    0.0800
51     H51    -3.1791  -14.4477    1.0564 H        1 ZINC000071318334    0.0700
52     H52    -1.1614  -13.1177   -2.4741 H        1 ZINC000071318334    0.0700
53     H53    -1.1811  -14.8484   -2.0589 H        1 ZINC000071318334    0.0800
54     H54    -2.6725  -14.0483   -2.6099 H        1 ZINC000071318334    0.0700
55     H55    -0.3185  -12.7032   -0.1710 H        1 ZINC000071318334    0.3800
56     H56    -1.2963  -10.9236   -0.3927 H        1 ZINC000071318334    0.1500
57     H57    -5.7927   -5.7649   -0.3330 H        1 ZINC000071318334    0.1400
58     H58    -5.2773   -3.3675   -0.1605 H        1 ZINC000071318334    0.1300
@<TRIPOS>BOND
1     1     2     1
2     1     32    1
3     1     33    1
4     1     34    1
5     2     3     1
6     2     35    1
7     2     36    1
8     3     4     am
9     3     37    1
10    4     5     2
11    4     6     am
12    6     7     1
13    6     38    1
14    7     31    ar
15    7     8     ar
16    8     9     ar
17    8     39    1
18    9     10    ar
19    9     40    1
20    10    11    1
21    10    30    ar
22    11    29    ar
23    11    12    ar
24    12    13    ar
25    13    14    1
26    13    20    ar
27    14    19    1
28    14    15    1
29    15    16    1
30    15    41    1
31    15    42    1
32    16    17    1
33    16    43    1
34    16    44    1
35    17    18    1
36    18    19    1
37    18    45    1
38    18    46    1
39    19    47    1
40    19    48    1
41    20    28    ar
42    20    21    1
43    21    22    1
44    22    23    1
45    22    27    2
46    23    24    1
47    23    25    1
48    23    26    1
49    24    49    1
50    24    50    1
51    24    51    1
52    25    52    1
53    25    53    1
54    25    54    1
55    26    55    1
56    27    28    1
57    27    56    1
58    28    29    ar
59    30    31    ar
60    30    57    1
61    31    58    1
@<TRIPOS>SUBSTRUCTURE
1   ZINC000071318334 1     RESIDUE    1   A     ZIN   1
