@<TRIPOS>MOLECULE
ZINC000169685075
62    66    1     0     0
SMALL
USER_CHARGES
@<TRIPOS>ATOM
1      C1     -0.0888   -0.9142    0.9102 C.3      1 ZINC000169685075    0.0400
2      O2      0.7636   -2.0573    0.8164 O.3      1 ZINC000169685075   -0.2800
3      C3      1.2765   -2.3432   -0.4037 C.ar     1 ZINC000169685075    0.5500
4      N4      0.9723   -1.5606   -1.4271 N.ar     1 ZINC000169685075   -0.5800
5      C5      1.4504   -1.8019   -2.6363 C.ar     1 ZINC000169685075    0.2400
6      C6      2.2887   -2.9018   -2.8271 C.ar     1 ZINC000169685075   -0.1800
7      C7      2.8461   -3.2090   -4.1608 C.2      1 ZINC000169685075    0.2800
8      N8      2.8375   -4.3854   -4.7406 N.2      1 ZINC000169685075   -0.3900
9      C9      3.4340   -4.2875   -5.9507 C.2      1 ZINC000169685075   -0.0600
10     C10     3.8232   -2.9889   -6.1127 C.2      1 ZINC000169685075    0.0000
11     C11     4.4853   -2.8952   -7.4635 C.3      1 ZINC000169685075    0.2800
12     H12     3.9427   -2.1960   -8.0998 H        1 ZINC000169685075    0.1300
13     C13     5.9175   -2.4522   -7.3099 C.ar     1 ZINC000169685075   -0.0800
14     C14     6.8644   -3.3327   -6.8206 C.ar     1 ZINC000169685075   -0.0900
15     C15     8.1781   -2.9270   -6.6795 C.ar     1 ZINC000169685075   -0.1100
16     C16     8.5454   -1.6395   -7.0280 C.ar     1 ZINC000169685075   -0.0300
17     Cl17   10.1954   -1.1294   -6.8515 Cl       1 ZINC000169685075   -0.0700
18     C18     7.5974   -0.7587   -7.5175 C.ar     1 ZINC000169685075   -0.1100
19     C19     6.2851   -1.1674   -7.6635 C.ar     1 ZINC000169685075   -0.0600
20     N20     4.4310   -4.2463   -8.0357 N.am     1 ZINC000169685075   -0.5300
21     C21     4.9310   -4.6311   -9.2864 C.2      1 ZINC000169685075    0.0700
22     C22     4.9648   -5.9519   -9.6418 C.2      1 ZINC000169685075   -0.0600
23     C23     5.4705   -6.3100  -10.9002 C.2      1 ZINC000169685075   -0.1100
24     Cl24    5.5225   -7.9800  -11.3713 Cl       1 ZINC000169685075   -0.0300
25     C25     5.9174   -5.3537  -11.7475 C.2      1 ZINC000169685075    0.1200
26     N26     5.8848   -4.0403  -11.3952 N.am     1 ZINC000169685075   -0.4800
27     C27     6.3753   -3.0270  -12.3326 C.3      1 ZINC000169685075    0.0700
28     C28     5.4006   -3.6601  -10.1974 C.2      1 ZINC000169685075    0.5200
29     O29     5.3773   -2.4775   -9.8956 O.2      1 ZINC000169685075   -0.5300
30     C30     3.8173   -5.0498   -7.1488 C.2      1 ZINC000169685075    0.6000
31     O31     3.6097   -6.2370   -7.3136 O.2      1 ZINC000169685075   -0.4900
32     N32     3.4516   -2.3122   -4.9980 N.pl3    1 ZINC000169685075   -0.4000
33     C33     3.6674   -0.8873   -4.7348 C.3      1 ZINC000169685075    0.1200
34     C34     5.1667   -0.6155   -4.5966 C.3      1 ZINC000169685075   -0.1800
35     C35     3.1046   -0.0634   -5.8947 C.3      1 ZINC000169685075   -0.1700
36     C36     2.5887   -3.7096   -1.7148 C.ar     1 ZINC000169685075    0.4400
37     O37     3.3966   -4.7884   -1.8452 O.3      1 ZINC000169685075   -0.2700
38     C38     3.6503   -5.5552   -0.6663 C.3      1 ZINC000169685075    0.0300
39     N39     2.0711   -3.3934   -0.5356 N.ar     1 ZINC000169685075   -0.5800
40     H40     0.4629   -0.0238    0.6084 H        1 ZINC000169685075    0.0700
41     H41    -0.9493   -1.0479    0.2547 H        1 ZINC000169685075    0.0700
42     H42    -0.4301   -0.7989    1.9389 H        1 ZINC000169685075    0.1100
43     H43     1.1957   -1.1574   -3.4646 H        1 ZINC000169685075    0.1800
44     H44     6.5774   -4.3376   -6.5483 H        1 ZINC000169685075    0.1300
45     H45     8.9176   -3.6148   -6.2969 H        1 ZINC000169685075    0.1300
46     H46     7.8835    0.2465   -7.7894 H        1 ZINC000169685075    0.1400
47     H47     5.5450   -0.4801   -8.0460 H        1 ZINC000169685075    0.1300
48     H48     4.6066   -6.7101   -8.9612 H        1 ZINC000169685075    0.1700
49     H49     6.3051   -5.6370  -12.7149 H        1 ZINC000169685075    0.1800
50     H50     6.7209   -3.5130  -13.2449 H        1 ZINC000169685075    0.0900
51     H51     5.5691   -2.3339  -12.5731 H        1 ZINC000169685075    0.0900
52     H52     7.2008   -2.4800  -11.8771 H        1 ZINC000169685075    0.0900
53     H53     3.1608   -0.6077   -3.8111 H        1 ZINC000169685075    0.1100
54     H54     5.3228    0.4259   -4.3154 H        1 ZINC000169685075    0.0800
55     H55     5.5846   -1.2659   -3.8282 H        1 ZINC000169685075    0.0600
56     H56     5.6610   -0.8130   -5.5479 H        1 ZINC000169685075    0.0800
57     H57     2.0230   -0.1907   -5.9395 H        1 ZINC000169685075    0.0700
58     H58     3.3404    0.9895   -5.7405 H        1 ZINC000169685075    0.0900
59     H59     3.5493   -0.4022   -6.8304 H        1 ZINC000169685075    0.0700
60     H60     4.3100   -6.3881   -0.9096 H        1 ZINC000169685075    0.1100
61     H61     4.1253   -4.9224    0.0834 H        1 ZINC000169685075    0.0700
62     H62     2.7091   -5.9399   -0.2735 H        1 ZINC000169685075    0.0700
@<TRIPOS>BOND
1     1     2     1
2     1     40    1
3     1     41    1
4     1     42    1
5     2     3     1
6     3     39    ar
7     3     4     ar
8     4     5     ar
9     5     6     ar
10    5     43    1
11    6     7     1
12    6     36    ar
13    7     32    1
14    7     8     2
15    8     9     1
16    9     30    1
17    9     10    2
18    10    11    1
19    10    32    1
20    11    12    1
21    11    13    1
22    11    20    1
23    13    19    ar
24    13    14    ar
25    14    15    ar
26    14    44    1
27    15    16    ar
28    15    45    1
29    16    17    1
30    16    18    ar
31    18    19    ar
32    18    46    1
33    19    47    1
34    20    21    1
35    20    30    am
36    21    28    1
37    21    22    2
38    22    23    1
39    22    48    1
40    23    24    1
41    23    25    2
42    25    26    1
43    25    49    1
44    26    27    1
45    26    28    am
46    27    50    1
47    27    51    1
48    27    52    1
49    28    29    2
50    30    31    2
51    32    33    1
52    33    34    1
53    33    35    1
54    33    53    1
55    34    54    1
56    34    55    1
57    34    56    1
58    35    57    1
59    35    58    1
60    35    59    1
61    36    37    1
62    36    39    ar
63    37    38    1
64    38    60    1
65    38    61    1
66    38    62    1
@<TRIPOS>SUBSTRUCTURE
1   ZINC000169685075 1     RESIDUE    1   A     ZIN   1
