@<TRIPOS>MOLECULE
ZINC000001638577
27    28    1     0     0
SMALL
USER_CHARGES
@<TRIPOS>ATOM
1      O1     -1.1483    0.5721   -1.0044 O.2      1 ZINC000001638577   -0.1100
2      N2     -0.8842    1.4270   -0.1781 N.pl3    1 ZINC000001638577    0.0100
3      O3      0.2140    1.4466    0.3483 O.2      1 ZINC000001638577   -0.1300
4      C4     -1.8956    2.4458    0.1820 C.ar     1 ZINC000001638577    0.0800
5      C5     -3.2249    2.0875    0.3003 C.ar     1 ZINC000001638577   -0.1100
6      C6     -4.1711    3.0409    0.6372 C.ar     1 ZINC000001638577    0.1700
7      F7     -5.4709    2.6917    0.7536 F        1 ZINC000001638577   -0.1100
8      C8     -3.7838    4.3520    0.8551 C.ar     1 ZINC000001638577   -0.1300
9      C9     -2.4536    4.7081    0.7362 C.ar     1 ZINC000001638577    0.0200
10     C10    -1.5093    3.7544    0.4054 C.ar     1 ZINC000001638577   -0.6400
11     S11     0.1862    4.2097    0.2546 S.o2     1 ZINC000001638577    2.5800
12     O12     0.7113    3.4494   -0.8250 O.2      1 ZINC000001638577   -0.9200
13     O13     0.2258    5.6295    0.2971 O.2      1 ZINC000001638577   -0.9200
14     C14     1.0089    3.6454    1.7070 C.ar     1 ZINC000001638577   -0.6500
15     C15     0.6978    4.1967    2.9359 C.ar     1 ZINC000001638577   -0.0300
16     C16     1.3432    3.7540    4.0754 C.ar     1 ZINC000001638577   -0.1400
17     C17     2.2994    2.7597    3.9860 C.ar     1 ZINC000001638577   -0.0600
18     C18     2.6098    2.2078    2.7572 C.ar     1 ZINC000001638577   -0.1400
19     C19     1.9613    2.6475    1.6183 C.ar     1 ZINC000001638577    0.0200
20     H20    -3.5259    1.0644    0.1298 H        1 ZINC000001638577    0.1700
21     H21    -4.5209    5.0965    1.1176 H        1 ZINC000001638577    0.1700
22     H22    -2.1513    5.7309    0.9061 H        1 ZINC000001638577    0.1800
23     H23    -0.0493    4.9735    3.0058 H        1 ZINC000001638577    0.1300
24     H24     1.1006    4.1852    5.0354 H        1 ZINC000001638577    0.1300
25     H25     2.8041    2.4143    4.8762 H        1 ZINC000001638577    0.1300
26     H26     3.3571    1.4312    2.6874 H        1 ZINC000001638577    0.1400
27     H27     2.2039    2.2163    0.6583 H        1 ZINC000001638577    0.1500
@<TRIPOS>BOND
1     1     2     2
2     2     3     2
3     2     4     1
4     4     10    ar
5     4     5     ar
6     5     6     ar
7     5     20    1
8     6     7     1
9     6     8     ar
10    8     9     ar
11    8     21    1
12    9     10    ar
13    9     22    1
14    10    11    1
15    11    12    2
16    11    13    2
17    11    14    1
18    14    19    ar
19    14    15    ar
20    15    16    ar
21    15    23    1
22    16    17    ar
23    16    24    1
24    17    18    ar
25    17    25    1
26    18    19    ar
27    18    26    1
28    19    27    1
@<TRIPOS>SUBSTRUCTURE
1   ZINC000001638577 1     RESIDUE    1   A     ZIN   1
