@<TRIPOS>MOLECULE
ZINC000022194575
60    63    1     0     0
SMALL
USER_CHARGES
@<TRIPOS>ATOM
1      C1     -1.5499    3.4599    2.6995 C.3      1 ZINC000022194575    0.0300
2      O2     -0.6996    2.9174    3.7440 O.3      1 ZINC000022194575   -0.3500
3      C3      0.3455    2.1605    3.3513 C.2      1 ZINC000022194575    0.5300
4      O4      0.5402    1.9596    2.1675 O.2      1 ZINC000022194575   -0.4900
5      C5      1.2457    1.5805    4.3501 C.2      1 ZINC000022194575   -0.1800
6      C6      1.0546    0.3493    4.9080 C.2      1 ZINC000022194575    0.0500
7      N7     -0.0004   -0.4972    4.6053 N.am     1 ZINC000022194575   -0.6300
8      C8     -0.0987   -1.6957    5.2138 C.2      1 ZINC000022194575    0.5100
9      O9      0.7360   -2.0336    6.0262 O.2      1 ZINC000022194575   -0.4800
10     C10    -1.2457   -2.6161    4.8846 C.3      1 ZINC000022194575    0.0400
11     N11    -1.2104   -3.7814    5.7783 N.3      1 ZINC000022194575   -0.5200
12     C12    -2.1596   -4.8127    5.3366 C.3      1 ZINC000022194575    0.0600
13     C13    -2.0356   -6.0387    6.2444 C.3      1 ZINC000022194575    0.0600
14     N14    -2.3005   -5.6441    7.6350 N.3      1 ZINC000022194575   -0.5200
15     C15    -2.2653   -6.8095    8.5287 C.3      1 ZINC000022194575    0.0700
16     H16    -2.8937   -7.6005    8.1193 H        1 ZINC000022194575    0.1100
17     C17    -0.8262   -7.3140    8.6524 C.3      1 ZINC000022194575   -0.1900
18     C18    -2.7778   -6.4145    9.8897 C.2      1 ZINC000022194575    0.5200
19     O19    -3.1371   -5.2744   10.0950 O.2      1 ZINC000022194575   -0.5200
20     N20    -2.8370   -7.3281   10.8788 N.am     1 ZINC000022194575   -0.7000
21     C21    -3.3352   -6.9441   12.2018 C.3      1 ZINC000022194575    0.0800
22     C22    -4.3022   -7.9036   12.8984 C.3      1 ZINC000022194575   -0.1900
23     C23    -2.8634   -7.7687   13.4011 C.3      1 ZINC000022194575   -0.1900
24     C24    -1.3514   -4.6128    8.0767 C.3      1 ZINC000022194575    0.0500
25     C25    -1.4753   -3.3868    7.1689 C.3      1 ZINC000022194575    0.0600
26     S26     2.2872   -0.0044    6.0253 S.3      1 ZINC000022194575    0.3400
27     C27     3.0961    1.5380    5.7495 C.2      1 ZINC000022194575   -0.2700
28     C28     2.4411    2.2588    4.8442 C.2      1 ZINC000022194575   -0.0700
29     C29     3.1514    3.5899    4.6149 C.3      1 ZINC000022194575   -0.0600
30     C30     4.0818    3.7582    5.8328 C.3      1 ZINC000022194575   -0.1200
31     C31     4.3285    2.2895    6.2384 C.3      1 ZINC000022194575   -0.0400
32     H32    -2.3496    4.0473    3.1506 H        1 ZINC000022194575    0.1000
33     H33    -0.9573    4.0968    2.0427 H        1 ZINC000022194575    0.0700
34     H34    -1.9811    2.6428    2.1211 H        1 ZINC000022194575    0.0600
35     H35    -0.6680   -0.2269    3.9555 H        1 ZINC000022194575    0.4200
36     H36    -2.1879   -2.0844    5.0178 H        1 ZINC000022194575    0.0700
37     H37    -1.1593   -2.9487    3.8502 H        1 ZINC000022194575    0.1200
38     H38    -3.1750   -4.4203    5.3922 H        1 ZINC000022194575    0.0500
39     H39    -1.9351   -5.0972    4.3086 H        1 ZINC000022194575    0.0800
40     H40    -2.7590   -6.7938    5.9365 H        1 ZINC000022194575    0.0800
41     H41    -1.0281   -6.4474    6.1680 H        1 ZINC000022194575    0.0500
42     H42    -0.8000   -8.1787    9.3155 H        1 ZINC000022194575    0.0700
43     H43    -0.4555   -7.5997    7.6680 H        1 ZINC000022194575    0.0700
44     H44    -0.1978   -6.5230    9.0618 H        1 ZINC000022194575    0.0700
45     H45    -2.5496   -8.2399   10.7146 H        1 ZINC000022194575    0.4000
46     H46    -3.4884   -5.8757   12.3546 H        1 ZINC000022194575    0.1400
47     H47    -5.0919   -7.4666   13.5096 H        1 ZINC000022194575    0.1000
48     H48    -4.5676   -8.8205   12.3723 H        1 ZINC000022194575    0.1000
49     H49    -2.1823   -8.5970   13.2057 H        1 ZINC000022194575    0.1000
50     H50    -2.7066   -7.2430   14.3430 H        1 ZINC000022194575    0.1000
51     H51    -1.5758   -4.3283    9.1047 H        1 ZINC000022194575    0.1000
52     H52    -0.3360   -5.0053    8.0211 H        1 ZINC000022194575    0.0500
53     H53    -0.7520   -2.6318    7.4768 H        1 ZINC000022194575    0.0900
54     H54    -2.4829   -2.9782    7.2453 H        1 ZINC000022194575    0.0400
55     H55     3.7344    3.5549    3.6945 H        1 ZINC000022194575    0.0800
56     H56     2.4277    4.4039    4.5754 H        1 ZINC000022194575    0.0700
57     H57     5.0147    4.2444    5.5474 H        1 ZINC000022194575    0.0800
58     H58     3.5844    4.3089    6.6311 H        1 ZINC000022194575    0.0800
59     H59     4.4152    2.2047    7.3216 H        1 ZINC000022194575    0.0800
60     H60     5.2276    1.9083    5.7542 H        1 ZINC000022194575    0.0800
@<TRIPOS>BOND
1     1     2     1
2     1     32    1
3     1     33    1
4     1     34    1
5     2     3     1
6     3     4     2
7     3     5     1
8     5     28    1
9     5     6     2
10    6     7     1
11    6     26    1
12    7     8     am
13    7     35    1
14    8     9     2
15    8     10    1
16    10    11    1
17    10    36    1
18    10    37    1
19    11    25    1
20    11    12    1
21    12    13    1
22    12    38    1
23    12    39    1
24    13    14    1
25    13    40    1
26    13    41    1
27    14    15    1
28    14    24    1
29    15    16    1
30    15    17    1
31    15    18    1
32    17    42    1
33    17    43    1
34    17    44    1
35    18    19    2
36    18    20    am
37    20    21    1
38    20    45    1
39    21    23    1
40    21    22    1
41    21    46    1
42    22    23    1
43    22    47    1
44    22    48    1
45    23    49    1
46    23    50    1
47    24    25    1
48    24    51    1
49    24    52    1
50    25    53    1
51    25    54    1
52    26    27    1
53    27    31    1
54    27    28    2
55    28    29    1
56    29    30    1
57    29    55    1
58    29    56    1
59    30    31    1
60    30    57    1
61    30    58    1
62    31    59    1
63    31    60    1
@<TRIPOS>SUBSTRUCTURE
1   ZINC000022194575 1     RESIDUE    1   A     ZIN   1
