@<TRIPOS>MOLECULE
ZINC000058583465
  38   41    0    0    0
SMALL
USER_CHARGES
NO_NAME
@<TRIPOS>ATOM
    1 C1       -0.0184     1.5028     0.0103 C.3    1 <0>      -0.1200
    2 C2        0.0021    -0.0041     0.0020 C.2    1 <0>      -0.0100
    3 C3        0.0058    -0.6788    -1.1667 C.2    1 <0>      -0.1100
    4 C4        0.0262    -2.1433    -1.1637 C.2    1 <0>       0.3100
    5 N5        0.0336    -3.0113    -2.1474 N.2    1 <0>      -0.2700
    6 N6        0.0541    -4.2964    -1.5898 N.am   1 <0>      -0.5300
    7 C7        0.0586    -4.1585    -0.2489 C.2    1 <0>       0.6500
    8 O8        0.0750    -5.0646     0.5655 O.2    1 <0>      -0.5400
    9 N9        0.0416    -2.8387     0.0310 N.am   1 <0>      -0.4900
   10 C10       0.0380    -2.1559     1.2435 C.ar   1 <0>       0.1800
   11 C11       0.0536    -2.8588     2.4381 C.ar   1 <0>      -0.1300
   12 C12       0.0498    -2.1678     3.6467 C.ar   1 <0>       0.0000
   13 C13       0.0669    -2.9175     4.9260 C.ar   1 <0>      -0.0500
   14 C14       0.0927    -4.3113     4.9198 C.ar   1 <0>      -0.1000
   15 C15       0.1090    -5.0036     6.1135 C.ar   1 <0>      -0.1000
   16 C16       0.0999    -4.3173     7.3145 C.ar   1 <0>      -0.0900
   17 C17       0.1184    -5.0791     8.6146 C.3    1 <0>       0.1100
   18 O18       1.4712    -5.2946     9.0212 O.3    1 <0>      -0.5700
   19 C19       0.0744    -2.9342     7.3267 C.ar   1 <0>      -0.1000
   20 C20       0.0632    -2.2311     6.1393 C.ar   1 <0>      -0.1000
   21 C21       0.0303    -0.7711     3.6591 C.ar   1 <0>      -0.1200
   22 C22       0.0149    -0.0710     2.4876 C.ar   1 <0>      -0.0700
   23 C23       0.0242    -0.7513     1.2645 C.ar   1 <0>      -0.0900
   24 H24       1.0042     1.8801     0.0026 H      1 <0>       0.0900
   25 H25      -0.5455     1.8639    -0.8728 H      1 <0>       0.0800
   26 H26      -0.5286     1.8543     0.9071 H      1 <0>       0.0800
   27 H27      -0.0065    -0.1399    -2.1025 H      1 <0>       0.1600
   28 H28       0.0631    -5.1335    -2.0798 H      1 <0>       0.4600
   29 H29       0.0683    -3.9386     2.4313 H      1 <0>       0.1600
   30 H30       0.0994    -4.8482     3.9828 H      1 <0>       0.1300
   31 H31       0.1286    -6.0835     6.1100 H      1 <0>       0.1300
   32 H32      -0.4039    -4.5048     9.3797 H      1 <0>       0.0600
   33 H33      -0.3779    -6.0402     8.4796 H      1 <0>       0.0600
   34 H34       1.5594    -5.7805     9.8526 H      1 <0>       0.3800
   35 H35       0.0670    -2.4036     8.2673 H      1 <0>       0.1300
   36 H36       0.0436    -1.1514     6.1500 H      1 <0>       0.1300
   37 H37       0.0271    -0.2423     4.6008 H      1 <0>       0.1400
   38 H38      -0.0005     1.0088     2.5043 H      1 <0>       0.1500
@<TRIPOS>BOND
   1    1    2 1
   2    1   24 1
   3    1   25 1
   4    1   26 1
   5    2   23 1
   6    2    3 2
   7    3    4 1
   8    3   27 1
   9    4    9 1
  10    4    5 2
  11    5    6 1
  12    6    7 am
  13    6   28 1
  14    7    8 2
  15    7    9 am
  16    9   10 1
  17   10   23 ar
  18   10   11 ar
  19   11   12 ar
  20   11   29 1
  21   12   13 1
  22   12   21 ar
  23   13   20 ar
  24   13   14 ar
  25   14   15 ar
  26   14   30 1
  27   15   16 ar
  28   15   31 1
  29   16   17 1
  30   16   19 ar
  31   17   18 1
  32   17   32 1
  33   17   33 1
  34   18   34 1
  35   19   20 ar
  36   19   35 1
  37   20   36 1
  38   21   22 ar
  39   21   37 1
  40   22   23 ar
  41   22   38 1
