@<TRIPOS>MOLECULE
ZINC000006092269
27    29    1     0     0
SMALL
USER_CHARGES
@<TRIPOS>ATOM
1      O1      0.0021   -0.0041    0.0020 O.2      1 ZINC000006092269   -0.4200
2      C2     -0.0144    1.2138    0.0087 C.2      1 ZINC000006092269    0.4400
3      C3     -1.2744    1.9789    0.0311 C.ar     1 ZINC000006092269   -0.2700
4      C4     -2.5025    1.3537   -0.2177 C.ar     1 ZINC000006092269    0.2200
5      O5     -2.5525    0.0218   -0.4717 O.3      1 ZINC000006092269   -0.4800
6      C6     -3.6645    2.1042   -0.2022 C.ar     1 ZINC000006092269   -0.2100
7      C7     -3.6073    3.4678    0.0614 C.ar     1 ZINC000006092269    0.2000
8      O8     -4.7515    4.1977    0.0718 O.3      1 ZINC000006092269   -0.4900
9      C9     -2.3946    4.0907    0.3142 C.ar     1 ZINC000006092269   -0.1900
10     C10    -1.2171    3.3568    0.3060 C.ar     1 ZINC000006092269    0.1900
11     O11    -0.0427    3.9659    0.5666 O.3      1 ZINC000006092269   -0.2100
12     C12     1.1405    3.3871    0.2749 C.ar     1 ZINC000006092269    0.1400
13     C13     2.3037    4.1549    0.2478 C.ar     1 ZINC000006092269    0.0800
14     O14     2.2426    5.4888    0.5094 O.3      1 ZINC000006092269   -0.4800
15     C15     3.5203    3.5640   -0.0440 C.ar     1 ZINC000006092269   -0.0600
16     C16     3.6039    2.2085   -0.3122 C.ar     1 ZINC000006092269   -0.1600
17     C17     2.4617    1.4254   -0.2942 C.ar     1 ZINC000006092269    0.1900
18     O18     2.5404    0.0954   -0.5555 O.3      1 ZINC000006092269   -0.4800
19     C19     1.2266    2.0144    0.0012 C.ar     1 ZINC000006092269   -0.2400
20     H20    -2.6598   -0.5254    0.3182 H        1 ZINC000006092269    0.4000
21     H21    -4.6158    1.6308   -0.3951 H        1 ZINC000006092269    0.1500
22     H22    -5.1791    4.2465    0.9378 H        1 ZINC000006092269    0.4000
23     H23    -2.3664    5.1510    0.5179 H        1 ZINC000006092269    0.1500
24     H24     2.3522    5.7117    1.4440 H        1 ZINC000006092269    0.3900
25     H25     4.4155    4.1678   -0.0631 H        1 ZINC000006092269    0.1500
26     H26     4.5610    1.7611   -0.5361 H        1 ZINC000006092269    0.1500
27     H27     2.6875   -0.4514    0.2283 H        1 ZINC000006092269    0.4000
@<TRIPOS>BOND
1     1     2     2
2     2     19    1
3     2     3     1
4     3     10    ar
5     3     4     ar
6     4     5     1
7     4     6     ar
8     5     20    1
9     6     7     ar
10    6     21    1
11    7     8     1
12    7     9     ar
13    8     22    1
14    9     10    ar
15    9     23    1
16    10    11    1
17    11    12    1
18    12    19    ar
19    12    13    ar
20    13    14    1
21    13    15    ar
22    14    24    1
23    15    16    ar
24    15    25    1
25    16    17    ar
26    16    26    1
27    17    18    1
28    17    19    ar
29    18    27    1
@<TRIPOS>SUBSTRUCTURE
1   ZINC000006092269 1     RESIDUE    1   A     ZIN   1
