@<TRIPOS>MOLECULE
ZINC000070466460
  41   44    0    0    0
SMALL
USER_CHARGES
NO_NAME
@<TRIPOS>ATOM
    1 C1       -0.0589     1.4279    -0.5792 C.3    1 <0>       0.0200
    2 O2       -0.0416    -0.0008    -0.6036 O.3    1 <0>      -0.2900
    3 C3       -1.2328    -0.6347    -0.4470 C.ar   1 <0>       0.1700
    4 C4       -1.2771    -2.0362    -0.4565 C.ar   1 <0>       0.1200
    5 O5       -0.1281    -2.7440    -0.6224 O.3    1 <0>      -0.3000
    6 C6       -0.2381    -4.1687    -0.6232 C.3    1 <0>       0.0200
    7 C7       -2.4616    -2.6985    -0.3006 C.ar   1 <0>      -0.1400
    8 C8       -3.6441    -1.9674    -0.1294 C.ar   1 <0>      -0.1300
    9 C9       -3.6010    -0.5499    -0.1195 C.ar   1 <0>       0.1900
   10 C10      -2.3716     0.1021    -0.2764 C.ar   1 <0>      -0.1900
   11 N11      -4.7464     0.1277     0.0464 N.ar   1 <0>      -0.5000
   12 C12      -5.8813    -0.5128     0.1962 C.ar   1 <0>       0.3200
   13 N13      -5.9681    -1.8337     0.1938 N.ar   1 <0>      -0.5400
   14 C14      -4.8974    -2.5981     0.0368 C.ar   1 <0>       0.4500
   15 N15      -5.0041    -3.9840     0.0369 N.pl3  1 <0>      -0.3700
   16 N16      -4.2077    -4.8895     0.7566 N.2    1 <0>      -0.2700
   17 C17      -4.6447    -6.0950     0.4714 C.2    1 <0>       0.3100
   18 C18      -4.0923    -7.3609     1.0123 C.ar   1 <0>       0.1900
   19 C19      -4.6463    -8.5784     0.6232 C.ar   1 <0>      -0.1200
   20 C20      -4.1200    -9.7515     1.1364 C.ar   1 <0>      -0.0800
   21 C21      -3.0559    -9.6679     2.0228 C.ar   1 <0>      -0.1600
   22 C22      -2.5550    -8.4253     2.3659 C.ar   1 <0>       0.1000
   23 N23      -3.0709    -7.3245     1.8586 N.ar   1 <0>      -0.4600
   24 N24      -5.6712    -5.9979    -0.3873 N.2    1 <0>      -0.5600
   25 C25      -5.9058    -4.7336    -0.6564 C.2    1 <0>       0.5700
   26 N26      -6.8871    -4.2504    -1.5001 N.pl3  1 <0>      -0.8100
   27 H27       0.9544     1.8059    -0.7149 H      1 <0>       0.1100
   28 H28      -0.6953     1.7974    -1.3833 H      1 <0>       0.0600
   29 H29      -0.4489     1.7702     0.3794 H      1 <0>       0.0600
   30 H30       0.7490    -4.6093    -0.7638 H      1 <0>       0.1100
   31 H31      -0.6523    -4.5017     0.3285 H      1 <0>       0.0700
   32 H32      -0.8947    -4.4820    -1.4348 H      1 <0>       0.0500
   33 H33      -2.4862    -3.7782    -0.3097 H      1 <0>       0.1600
   34 H34      -2.3245     1.1811    -0.2704 H      1 <0>       0.1600
   35 H35      -6.7853     0.0633     0.3276 H      1 <0>       0.2100
   36 H36      -5.4749    -8.6067    -0.0689 H      1 <0>       0.1500
   37 H37      -4.5288   -10.7103     0.8535 H      1 <0>       0.1400
   38 H38      -2.6231   -10.5646     2.4412 H      1 <0>       0.1400
   39 H39      -1.7270    -8.3567     3.0559 H      1 <0>       0.1600
   40 H40      -7.4803    -4.8669    -1.9573 H      1 <0>       0.4300
   41 H41      -6.9829    -3.2947    -1.6353 H      1 <0>       0.4200
@<TRIPOS>BOND
   1    1    2 1
   2    1   27 1
   3    1   28 1
   4    1   29 1
   5    2    3 1
   6    3   10 ar
   7    3    4 ar
   8    4    5 1
   9    4    7 ar
  10    5    6 1
  11    6   30 1
  12    6   31 1
  13    6   32 1
  14    7    8 ar
  15    7   33 1
  16    8   14 ar
  17    8    9 ar
  18    9   10 ar
  19    9   11 ar
  20   10   34 1
  21   11   12 ar
  22   12   13 ar
  23   12   35 1
  24   13   14 ar
  25   14   15 1
  26   15   25 1
  27   15   16 1
  28   16   17 2
  29   17   18 1
  30   17   24 1
  31   18   23 ar
  32   18   19 ar
  33   19   20 ar
  34   19   36 1
  35   20   21 ar
  36   20   37 1
  37   21   22 ar
  38   21   38 1
  39   22   23 ar
  40   22   39 1
  41   24   25 2
  42   25   26 1
  43   26   40 1
  44   26   41 1
