@<TRIPOS>MOLECULE
ZINC000052969655
35    35    1     0     0
SMALL
USER_CHARGES
@<TRIPOS>ATOM
1      C1     -0.0187    1.5258    0.0104 C.3      1 ZINC000052969655   -0.1400
2      C2      0.0021   -0.0041    0.0020 C.3      1 ZINC000052969655    0.1000
3      H3     -1.0205   -0.3814    0.0098 H        1 ZINC000052969655    0.1200
4      N4      0.7126   -0.4907    1.1921 N.3      1 ZINC000052969655   -0.8100
5      C5      0.7074   -0.4901   -1.2379 C.2      1 ZINC000052969655    0.4300
6      O6      1.8600   -0.8475   -1.1764 O.2      1 ZINC000052969655   -0.5100
7      O7      0.0553   -0.5259   -2.4106 O.3      1 ZINC000052969655   -0.3400
8      C8      0.7972   -1.0053   -3.5630 C.3      1 ZINC000052969655    0.1300
9      C9      2.0136   -0.1070   -3.7962 C.3      1 ZINC000052969655   -0.1900
10     C10     1.2640   -2.4399   -3.3082 C.3      1 ZINC000052969655   -0.1800
11     C11    -0.1043   -0.9742   -4.7988 C.3      1 ZINC000052969655   -0.0700
12     C12    -0.4644    0.4530   -5.1221 C.ar     1 ZINC000052969655   -0.0800
13     C13    -1.5924    1.0245   -4.5634 C.ar     1 ZINC000052969655   -0.0900
14     C14    -1.9232    2.3333   -4.8595 C.ar     1 ZINC000052969655   -0.1100
15     C15    -1.1253    3.0716   -5.7152 C.ar     1 ZINC000052969655   -0.0400
16     Cl16   -1.5398    4.7159   -6.0871 Cl       1 ZINC000052969655   -0.0700
17     C17     0.0035    2.4992   -6.2741 C.ar     1 ZINC000052969655   -0.1100
18     C18     0.3364    1.1920   -5.9728 C.ar     1 ZINC000052969655   -0.1000
19     H19     1.0039    1.9031    0.0027 H        1 ZINC000052969655    0.0600
20     H20    -0.5459    1.8868   -0.8726 H        1 ZINC000052969655    0.0700
21     H21    -0.5289    1.8773    0.9072 H        1 ZINC000052969655    0.0800
22     H22     0.6843   -1.4980    1.2434 H        1 ZINC000052969655    0.3500
23     H23     1.6637   -0.1543    1.2082 H        1 ZINC000052969655    0.3500
24     H24     2.6558   -0.1292   -2.9158 H        1 ZINC000052969655    0.0800
25     H25     2.5705   -0.4669   -4.6614 H        1 ZINC000052969655    0.0700
26     H26     1.6810    0.9150   -3.9777 H        1 ZINC000052969655    0.0700
27     H27     0.3975   -3.0799   -3.1420 H        1 ZINC000052969655    0.0600
28     H28     1.8209   -2.7998   -4.1733 H        1 ZINC000052969655    0.0700
29     H29     1.9063   -2.4621   -2.4278 H        1 ZINC000052969655    0.0800
30     H30     0.4228   -1.4163   -5.6443 H        1 ZINC000052969655    0.1000
31     H31    -1.0131   -1.5422   -4.6000 H        1 ZINC000052969655    0.0900
32     H32    -2.2154    0.4479   -3.8956 H        1 ZINC000052969655    0.1300
33     H33    -2.8047    2.7796   -4.4232 H        1 ZINC000052969655    0.1300
34     H34     0.6266    3.0749   -6.9424 H        1 ZINC000052969655    0.1300
35     H35     1.2177    0.7451   -6.4087 H        1 ZINC000052969655    0.1300
@<TRIPOS>BOND
1     1     2     1
2     1     19    1
3     1     20    1
4     1     21    1
5     2     3     1
6     2     4     1
7     2     5     1
8     4     22    1
9     4     23    1
10    5     6     2
11    5     7     1
12    7     8     1
13    8     9     1
14    8     10    1
15    8     11    1
16    9     24    1
17    9     25    1
18    9     26    1
19    10    27    1
20    10    28    1
21    10    29    1
22    11    12    1
23    11    30    1
24    11    31    1
25    12    18    ar
26    12    13    ar
27    13    14    ar
28    13    32    1
29    14    15    ar
30    14    33    1
31    15    16    1
32    15    17    ar
33    17    18    ar
34    17    34    1
35    18    35    1
@<TRIPOS>SUBSTRUCTURE
1   ZINC000052969655 1     RESIDUE    1   A     ZIN   1
