@<TRIPOS>MOLECULE
ZINC000001704311
  33   35    0    0    0
SMALL
USER_CHARGES
NO_NAME
@<TRIPOS>ATOM
    1 N1       -0.0167     1.3790     0.0096 N.pl3  1 <0>      -0.8300
    2 C2        0.0021    -0.0041     0.0020 C.ar   1 <0>       0.4900
    3 C3       -1.1927    -0.7395     0.0036 C.ar   1 <0>      -0.2400
    4 C4       -2.6155    -0.4039     0.0132 C.2    1 <0>      -0.1600
    5 I5       -3.4451     1.5198     0.0281 I      1 <0>       0.0000
    6 C6       -3.2887    -1.5664     0.0102 C.2    1 <0>       0.1100
    7 N7       -2.4047    -2.6151    -0.0006 N.pl3  1 <0>      -0.4500
    8 C8       -2.7810    -4.0310    -0.0072 C.3    1 <0>       0.3100
    9 H9       -2.0728    -4.6138     0.5818 H      1 <0>       0.1200
   10 O10      -4.1200    -4.1977     0.5075 O.3    1 <0>      -0.3400
   11 C11      -4.5620    -5.4796     0.0102 C.3    1 <0>       0.0500
   12 H12      -4.1272    -6.2861     0.6006 H      1 <0>       0.1000
   13 C13      -6.0894    -5.5640     0.0382 C.3    1 <0>       0.0800
   14 O14      -6.5423    -5.5521     1.3935 O.3    1 <0>      -0.5600
   15 C15      -4.0444    -5.5385    -1.4441 C.3    1 <0>       0.0500
   16 H16      -3.7178    -6.5482    -1.6927 H      1 <0>       0.1000
   17 O17      -5.0566    -5.1027    -2.3539 O.3    1 <0>      -0.5500
   18 C18      -2.8428    -4.5643    -1.4556 C.3    1 <0>       0.0700
   19 H19      -3.0204    -3.7471    -2.1548 H      1 <0>       0.0900
   20 O20      -1.6395    -5.2574    -1.7926 O.3    1 <0>      -0.5300
   21 C21      -1.1204    -2.1449    -0.0049 C.ar   1 <0>       0.3700
   22 N22       0.0809    -2.7204    -0.0151 N.ar   1 <0>      -0.5600
   23 C23       1.1755    -1.9908    -0.0172 C.ar   1 <0>       0.3700
   24 N24       1.1531    -0.6702    -0.0125 N.ar   1 <0>      -0.5900
   25 H25       0.8167     1.8754     0.0043 H      1 <0>       0.4100
   26 H26      -0.8632     1.8525     0.0162 H      1 <0>       0.4100
   27 H27      -4.3646    -1.6611     0.0158 H      1 <0>       0.1900
   28 H28      -6.5103    -4.7104    -0.4931 H      1 <0>       0.0700
   29 H29      -6.4112    -6.4869    -0.4443 H      1 <0>       0.0700
   30 H30      -7.5034    -5.6031     1.4875 H      1 <0>       0.3900
   31 H31      -5.8560    -5.6467    -2.3428 H      1 <0>       0.3900
   32 H32      -1.6514    -5.6621    -2.6708 H      1 <0>       0.3900
   33 H33       2.1319    -2.4923    -0.0255 H      1 <0>       0.2000
@<TRIPOS>BOND
   1    1    2 1
   2    1   25 1
   3    1   26 1
   4    2   24 ar
   5    2    3 ar
   6    3   21 ar
   7    3    4 1
   8    4    5 1
   9    4    6 2
  10    6    7 1
  11    6   27 1
  12    7    8 1
  13    7   21 1
  14    8    9 1
  15    8   18 1
  16    8   10 1
  17   10   11 1
  18   11   12 1
  19   11   13 1
  20   11   15 1
  21   13   14 1
  22   13   28 1
  23   13   29 1
  24   14   30 1
  25   15   16 1
  26   15   17 1
  27   15   18 1
  28   17   31 1
  29   18   19 1
  30   18   20 1
  31   20   32 1
  32   21   22 ar
  33   22   23 ar
  34   23   24 ar
  35   23   33 1
