@<TRIPOS>MOLECULE
ZINC000214463223
70    74    1     0     0
SMALL
USER_CHARGES
@<TRIPOS>ATOM
1      C1     -4.2861  -13.8711   -8.1127 C.3      1 ZINC000214463223   -0.0500
2      N2     -4.2333  -13.5322   -6.6843 N.4      1 ZINC000214463223   -0.3900
3      H3     -5.1122  -13.7700   -6.2495 H        1 ZINC000214463223    0.4300
4      C4     -3.1491  -14.2868   -6.0417 C.3      1 ZINC000214463223   -0.0500
5      C5     -3.9852  -12.0923   -6.5315 C.3      1 ZINC000214463223    0.0300
6      C6     -4.0530  -11.7230   -5.0721 C.2      1 ZINC000214463223   -0.1500
7      C7     -3.0295  -11.0988   -4.4958 C.2      1 ZINC000214463223   -0.1300
8      C8     -3.0956  -10.7383   -3.0715 C.2      1 ZINC000214463223    0.5300
9      O9     -4.0861  -11.0110   -2.4206 O.2      1 ZINC000214463223   -0.5000
10     N10    -2.0585  -10.1058   -2.4876 N.am     1 ZINC000214463223   -0.6600
11     C11    -2.1588   -9.6768   -1.1602 C.ar     1 ZINC000214463223    0.1200
12     C12    -1.5575   -8.4871   -0.7672 C.ar     1 ZINC000214463223   -0.1100
13     C13    -1.6537   -8.0586    0.5438 C.ar     1 ZINC000214463223   -0.1000
14     C14    -2.3474   -8.8091    1.4707 C.ar     1 ZINC000214463223   -0.0900
15     C15    -2.9556  -10.0057    1.0860 C.ar     1 ZINC000214463223   -0.1200
16     C16    -3.6998  -10.8116    2.0770 C.2      1 ZINC000214463223    0.5600
17     O17    -4.2285  -11.8530    1.7398 O.2      1 ZINC000214463223   -0.5100
18     N18    -3.7921  -10.3917    3.3543 N.am     1 ZINC000214463223   -0.6700
19     C19    -4.4026  -11.2040    4.3150 C.ar     1 ZINC000214463223    0.1600
20     C20    -5.1210  -10.6298    5.3563 C.ar     1 ZINC000214463223   -0.1600
21     C21    -5.7241  -11.4317    6.3063 C.ar     1 ZINC000214463223   -0.0800
22     C22    -5.6155  -12.8063    6.2239 C.ar     1 ZINC000214463223   -0.1200
23     C23    -4.8983  -13.3872    5.1848 C.ar     1 ZINC000214463223    0.1800
24     N24    -4.7884  -14.7785    5.1024 N.pl3    1 ZINC000214463223   -0.6300
25     C25    -5.8329  -15.5826    5.5302 C.ar     1 ZINC000214463223    0.5700
26     N26    -6.9714  -15.0171    5.9033 N.ar     1 ZINC000214463223   -0.5500
27     C27    -7.9943  -15.7499    6.3182 C.ar     1 ZINC000214463223    0.2100
28     C28    -7.8675  -17.1258    6.3611 C.ar     1 ZINC000214463223   -0.2000
29     Cl29   -9.1831  -18.1232    6.8977 Cl       1 ZINC000214463223   -0.0400
30     C30    -6.6521  -17.6961    5.9607 C.ar     1 ZINC000214463223    0.3200
31     C31    -6.4656  -19.1628    5.9874 C.2      1 ZINC000214463223   -0.1600
32     C32    -7.3182  -20.0982    5.4956 C.2      1 ZINC000214463223    0.1200
33     N33    -6.8065  -21.3427    5.7034 N.pl3    1 ZINC000214463223   -0.5800
34     C34    -5.5893  -21.2569    6.3451 C.ar     1 ZINC000214463223    0.0900
35     C35    -4.6723  -22.2082    6.7798 C.ar     1 ZINC000214463223   -0.1300
36     C36    -3.5124  -21.8086    7.4071 C.ar     1 ZINC000214463223   -0.1000
37     C37    -3.2469  -20.4622    7.6118 C.ar     1 ZINC000214463223   -0.1400
38     C38    -4.1422  -19.5046    7.1893 C.ar     1 ZINC000214463223   -0.0700
39     C39    -5.3161  -19.8935    6.5469 C.ar     1 ZINC000214463223   -0.0700
40     N40    -5.6687  -16.8960    5.5502 N.ar     1 ZINC000214463223   -0.5400
41     C41    -4.2963  -12.5849    4.2261 C.ar     1 ZINC000214463223   -0.1500
42     C42    -2.8630  -10.4354   -0.2376 C.ar     1 ZINC000214463223   -0.0600
43     H43    -4.4702  -14.9394   -8.2260 H        1 ZINC000214463223    0.1300
44     H44    -5.0906  -13.3112   -8.5895 H        1 ZINC000214463223    0.1300
45     H45    -3.3366  -13.6142   -8.5824 H        1 ZINC000214463223    0.1200
46     H46    -3.1099  -14.0353   -4.9818 H        1 ZINC000214463223    0.1200
47     H47    -3.3332  -15.3551   -6.1550 H        1 ZINC000214463223    0.1300
48     H48    -2.1996  -14.0299   -6.5114 H        1 ZINC000214463223    0.1200
49     H49    -2.9967  -11.8506   -6.9220 H        1 ZINC000214463223    0.1400
50     H50    -4.7406  -11.5329   -7.0833 H        1 ZINC000214463223    0.1500
51     H51    -4.9325  -11.9651   -4.4940 H        1 ZINC000214463223    0.1500
52     H52    -2.1499  -10.8566   -5.0738 H        1 ZINC000214463223    0.1400
53     H53    -1.2426   -9.9482   -2.9879 H        1 ZINC000214463223    0.4200
54     H54    -1.0129   -7.8955   -1.4881 H        1 ZINC000214463223    0.1400
55     H55    -1.1840   -7.1334    0.8433 H        1 ZINC000214463223    0.1400
56     H56    -2.4196   -8.4713    2.4940 H        1 ZINC000214463223    0.1300
57     H57    -3.4351   -9.5259    3.6073 H        1 ZINC000214463223    0.4100
58     H58    -5.2078   -9.5554    5.4236 H        1 ZINC000214463223    0.1300
59     H59    -6.2814  -10.9828    7.1152 H        1 ZINC000214463223    0.1300
60     H60    -6.0881  -13.4304    6.9680 H        1 ZINC000214463223    0.1400
61     H61    -3.9811  -15.1809    4.7457 H        1 ZINC000214463223    0.4300
62     H62    -8.9173  -15.2773    6.6202 H        1 ZINC000214463223    0.1800
63     H63    -8.2606  -19.8868    5.0122 H        1 ZINC000214463223    0.1800
64     H64    -7.2368  -22.1707    5.4386 H        1 ZINC000214463223    0.4200
65     H65    -4.8694  -23.2589    6.6261 H        1 ZINC000214463223    0.1200
66     H66    -2.8032  -22.5506    7.7430 H        1 ZINC000214463223    0.1300
67     H67    -2.3338  -20.1636    8.1053 H        1 ZINC000214463223    0.1300
68     H68    -3.9332  -18.4574    7.3506 H        1 ZINC000214463223    0.1200
69     H69    -3.7384  -13.0337    3.4176 H        1 ZINC000214463223    0.1400
70     H70    -3.3316  -11.3599   -0.5412 H        1 ZINC000214463223    0.1500
@<TRIPOS>BOND
1     1     2     1
2     1     43    1
3     1     44    1
4     1     45    1
5     2     3     1
6     2     4     1
7     2     5     1
8     4     46    1
9     4     47    1
10    4     48    1
11    5     6     1
12    5     49    1
13    5     50    1
14    6     7     2
15    6     51    1
16    7     8     1
17    7     52    1
18    8     9     2
19    8     10    am
20    10    11    1
21    10    53    1
22    11    42    ar
23    11    12    ar
24    12    13    ar
25    12    54    1
26    13    14    ar
27    13    55    1
28    14    15    ar
29    14    56    1
30    15    16    1
31    15    42    ar
32    16    17    2
33    16    18    am
34    18    19    1
35    18    57    1
36    19    41    ar
37    19    20    ar
38    20    21    ar
39    20    58    1
40    21    22    ar
41    21    59    1
42    22    23    ar
43    22    60    1
44    23    24    1
45    23    41    ar
46    24    25    1
47    24    61    1
48    25    40    ar
49    25    26    ar
50    26    27    ar
51    27    28    ar
52    27    62    1
53    28    29    1
54    28    30    ar
55    30    31    1
56    30    40    ar
57    31    39    1
58    31    32    2
59    32    33    1
60    32    63    1
61    33    34    1
62    33    64    1
63    34    39    ar
64    34    35    ar
65    35    36    ar
66    35    65    1
67    36    37    ar
68    36    66    1
69    37    38    ar
70    37    67    1
71    38    39    ar
72    38    68    1
73    41    69    1
74    42    70    1
@<TRIPOS>SUBSTRUCTURE
1   ZINC000214463223 1     RESIDUE    1   A     ZIN   1
