@<TRIPOS>MOLECULE
ZINC000096298875
25    28    1     0     0
SMALL
USER_CHARGES
@<TRIPOS>ATOM
1      O1      0.0021   -0.0041    0.0020 O.2      1 ZINC000096298875   -0.4400
2      C2     -0.0144    1.2133    0.0087 C.2      1 ZINC000096298875    0.4400
3      C3     -1.2964    1.9517    0.0311 C.ar     1 ZINC000096298875   -0.1500
4      C4     -2.4958    1.2312    0.0414 C.ar     1 ZINC000096298875   -0.0600
5      C5     -3.7012    1.8954    0.0614 C.ar     1 ZINC000096298875   -0.1200
6      C6     -3.7429    3.2815    0.0721 C.ar     1 ZINC000096298875   -0.0800
7      C7     -2.5747    4.0140    0.0626 C.ar     1 ZINC000096298875   -0.1100
8      C8     -1.3439    3.3633    0.0421 C.ar     1 ZINC000096298875    0.0500
9      C9     -0.0875    4.1349    0.0311 C.2      1 ZINC000096298875    0.0700
10     N10     0.3099    5.3828    0.0363 N.2      1 ZINC000096298875   -0.2000
11     N11     1.6045    5.4858    0.0179 N.pl3    1 ZINC000096298875   -0.4200
12     C12     2.2069    4.2580   -0.0020 C.ar     1 ZINC000096298875    0.0700
13     C13     3.4759    3.6876   -0.0268 C.ar     1 ZINC000096298875   -0.0700
14     C14     3.6065    2.3087   -0.0395 C.ar     1 ZINC000096298875   -0.1000
15     C15     2.5212    1.4402   -0.0289 C.ar     1 ZINC000096298875   -0.0600
16     C16     1.2384    1.9810    0.0009 C.ar     1 ZINC000096298875   -0.1100
17     C17     1.1417    3.3653    0.0072 C.ar     1 ZINC000096298875   -0.1400
18     H18    -2.4757    0.1515    0.0331 H        1 ZINC000096298875    0.1400
19     H19    -4.6226    1.3321    0.0686 H        1 ZINC000096298875    0.1400
20     H20    -4.6955    3.7900    0.0874 H        1 ZINC000096298875    0.1400
21     H21    -2.6145    5.0932    0.0712 H        1 ZINC000096298875    0.1400
22     H22     2.0845    6.3287    0.0178 H        1 ZINC000096298875    0.4500
23     H23     4.3539    4.3164   -0.0363 H        1 ZINC000096298875    0.1400
24     H24     4.6007    1.8874   -0.0591 H        1 ZINC000096298875    0.1400
25     H25     2.6696    0.3705   -0.0395 H        1 ZINC000096298875    0.1500
@<TRIPOS>BOND
1     1     2     2
2     2     16    1
3     2     3     1
4     3     8     ar
5     3     4     ar
6     4     5     ar
7     4     18    1
8     5     6     ar
9     5     19    1
10    6     7     ar
11    6     20    1
12    7     8     ar
13    7     21    1
14    8     9     1
15    9     17    1
16    9     10    2
17    10    11    1
18    11    12    1
19    11    22    1
20    12    17    ar
21    12    13    ar
22    13    14    ar
23    13    23    1
24    14    15    ar
25    14    24    1
26    15    16    ar
27    15    25    1
28    16    17    ar
@<TRIPOS>SUBSTRUCTURE
1   ZINC000096298875 1     RESIDUE    1   A     ZIN   1
