@<TRIPOS>MOLECULE
ZINC000003684699
30    32    1     0     0
SMALL
USER_CHARGES
@<TRIPOS>ATOM
1      O1      0.0021   -0.0041    0.0020 O.co2    1 ZINC000003684699   -0.7000
2      C2     -0.0145    1.2193    0.0087 C.2      1 ZINC000003684699    0.5300
3      O3      1.0366    1.8454    0.0021 O.co2    1 ZINC000003684699   -0.7100
4      C4     -1.2986    1.9376    0.0187 C.ar     1 ZINC000003684699   -0.2100
5      C5     -1.3184    3.3371    0.0206 C.ar     1 ZINC000003684699   -0.0400
6      C6     -2.5156    3.9935    0.0304 C.ar     1 ZINC000003684699   -0.2200
7      C7     -3.7097    3.2758    0.0390 C.ar     1 ZINC000003684699    0.2300
8      N8     -4.9172    3.9681    0.0544 N.pl3    1 ZINC000003684699   -0.7300
9      C9     -6.1209    3.2616    0.5042 C.3      1 ZINC000003684699    0.1000
10     H10    -6.0580    3.0800    1.5771 H        1 ZINC000003684699    0.0600
11     C11    -7.3383    4.0977    0.2044 C.2      1 ZINC000003684699    0.5000
12     O12    -7.2379    5.0926   -0.4932 O.co2    1 ZINC000003684699   -0.6900
13     O13    -8.4237    3.7793    0.6594 O.co2    1 ZINC000003684699   -0.6900
14     C14    -6.2183    1.9253   -0.2374 C.3      1 ZINC000003684699   -0.0800
15     H15    -6.4332    2.0490   -1.2988 H        1 ZINC000003684699    0.0800
16     C16    -7.2814    1.0613    0.5027 C.3      1 ZINC000003684699   -0.1000
17     C17    -6.5041    0.4616    1.6583 C.2      1 ZINC000003684699   -0.1700
18     C18    -5.2190    0.4685    1.4001 C.2      1 ZINC000003684699   -0.1500
19     C19    -4.9519    1.0866    0.0245 C.3      1 ZINC000003684699   -0.0100
20     H20    -4.8705    0.2960   -0.7215 H        1 ZINC000003684699    0.0800
21     C21    -3.7022    1.8849    0.0357 C.ar     1 ZINC000003684699   -0.1700
22     C22    -2.4993    1.2233    0.0206 C.ar     1 ZINC000003684699   -0.0400
23     H23    -0.3930    3.8940    0.0147 H        1 ZINC000003684699    0.1200
24     H24    -2.5371    5.0733    0.0317 H        1 ZINC000003684699    0.1100
25     H25    -4.9613    4.8958   -0.2253 H        1 ZINC000003684699    0.4000
26     H26    -8.0956    1.6858    0.8704 H        1 ZINC000003684699    0.1000
27     H27    -7.6626    0.2774   -0.1518 H        1 ZINC000003684699    0.0600
28     H28    -6.9472    0.0822    2.5672 H        1 ZINC000003684699    0.1200
29     H29    -4.4538    0.0926    2.0632 H        1 ZINC000003684699    0.1200
30     H30    -2.4811    0.1437    0.0020 H        1 ZINC000003684699    0.1200
@<TRIPOS>BOND
1     1     2     ar
2     2     3     ar
3     2     4     1
4     4     22    ar
5     4     5     ar
6     5     6     ar
7     5     23    1
8     6     7     ar
9     6     24    1
10    7     21    ar
11    7     8     1
12    8     9     1
13    8     25    1
14    9     10    1
15    9     11    1
16    9     14    1
17    11    12    ar
18    11    13    ar
19    14    15    1
20    14    19    1
21    14    16    1
22    16    17    1
23    16    26    1
24    16    27    1
25    17    18    2
26    17    28    1
27    18    19    1
28    18    29    1
29    19    20    1
30    19    21    1
31    21    22    ar
32    22    30    1
@<TRIPOS>SUBSTRUCTURE
1   ZINC000003684699 1     RESIDUE    1   A     ZIN   1
