@<TRIPOS>MOLECULE
ZINC000072318106
55    57    1     0     0
SMALL
USER_CHARGES
@<TRIPOS>ATOM
1      C1     -6.0379   -4.6664    0.0303 C.3      1 ZINC000072318106    0.0200
2      O2     -7.2852   -3.9692    0.0404 O.3      1 ZINC000072318106   -0.2900
3      C3     -7.2330   -2.6128    0.0471 C.ar     1 ZINC000072318106    0.2100
4      C4     -6.0156   -1.9476    0.0384 C.ar     1 ZINC000072318106   -0.2900
5      C5     -6.0034   -0.5581    0.0457 C.ar     1 ZINC000072318106    0.3900
6      N6     -4.7865    0.1178    0.0366 N.pl3    1 ZINC000072318106   -0.6200
7      C7     -4.7621    1.5005   -0.0672 C.ar     1 ZINC000072318106    0.4100
8      C8     -3.5416    2.1689   -0.1864 C.ar     1 ZINC000072318106    0.0000
9      N9     -3.5123    3.4806   -0.2853 N.ar     1 ZINC000072318106   -0.3300
10     C10    -4.6485    4.1762   -0.2725 C.ar     1 ZINC000072318106    0.0800
11     C11    -4.6171    5.6038   -0.3806 C.1      1 ZINC000072318106    0.2700
12     N12    -4.5922    6.7363   -0.4663 N.1      1 ZINC000072318106   -0.3800
13     C13    -5.8763    3.5068   -0.1533 C.ar     1 ZINC000072318106    0.3500
14     O14    -7.0345    4.2093   -0.1402 O.3      1 ZINC000072318106   -0.3000
15     C15    -8.2457    3.4611   -0.0161 C.3      1 ZINC000072318106    0.0600
16     H16    -8.0550    2.5536    0.5568 H        1 ZINC000072318106    0.1300
17     C17    -8.7590    3.0871   -1.4080 C.3      1 ZINC000072318106   -0.1700
18     C18    -9.2966    4.3078    0.7046 C.3      1 ZINC000072318106   -0.0100
19     N19    -8.8037    4.6669    2.0411 N.4      1 ZINC000072318106   -0.3900
20     H20    -7.9076    5.1231    1.9577 H        1 ZINC000072318106    0.4300
21     C21    -9.7586    5.5775    2.6868 C.3      1 ZINC000072318106   -0.0500
22     C22    -8.6606    3.4512    2.8532 C.3      1 ZINC000072318106   -0.0600
23     N23    -5.8995    2.1856   -0.0587 N.ar     1 ZINC000072318106   -0.4800
24     N24    -7.1341    0.1321    0.0608 N.ar     1 ZINC000072318106   -0.5000
25     C25    -8.3125   -0.4612    0.0694 C.ar     1 ZINC000072318106    0.1600
26     C26    -8.4101   -1.8467    0.0571 C.ar     1 ZINC000072318106   -0.1000
27     C27    -9.7395   -2.5084    0.0670 C.2      1 ZINC000072318106   -0.1900
28     C28   -10.7676   -2.2387    0.9218 C.2      1 ZINC000072318106    0.0700
29     N29   -11.7925   -3.0547    0.5978 N.pl3    1 ZINC000072318106   -0.3700
30     C30   -13.0977   -3.0999    1.2617 C.3      1 ZINC000072318106    0.1000
31     N31   -11.3930   -3.8500   -0.4830 N.2      1 ZINC000072318106   -0.2900
32     C32   -10.1698   -3.5241   -0.8085 C.2      1 ZINC000072318106    0.0800
33     H33    -6.2222   -5.7407    0.0258 H        1 ZINC000072318106    0.1100
34     H34    -5.4747   -4.3906   -0.8612 H        1 ZINC000072318106    0.0600
35     H35    -5.4654   -4.3997    0.9187 H        1 ZINC000072318106    0.0600
36     H36    -5.0892   -2.5026    0.0265 H        1 ZINC000072318106    0.1400
37     H37    -3.9557   -0.3783    0.1030 H        1 ZINC000072318106    0.4400
38     H38    -2.6191    1.6074   -0.1971 H        1 ZINC000072318106    0.1900
39     H39    -8.0103    2.4838   -1.9214 H        1 ZINC000072318106    0.0900
40     H40    -9.6828    2.5163   -1.3133 H        1 ZINC000072318106    0.0800
41     H41    -8.9497    3.9946   -1.9809 H        1 ZINC000072318106    0.0700
42     H42    -9.4873    5.2153    0.1317 H        1 ZINC000072318106    0.1400
43     H43   -10.2204    3.7371    0.7993 H        1 ZINC000072318106    0.1500
44     H44   -10.7266    5.0846    2.7769 H        1 ZINC000072318106    0.1200
45     H45    -9.3929    5.8439    3.6785 H        1 ZINC000072318106    0.1300
46     H46    -9.8649    6.4795    2.0843 H        1 ZINC000072318106    0.1300
47     H47    -7.9520    2.7755    2.3740 H        1 ZINC000072318106    0.1200
48     H48    -8.2948    3.7176    3.8448 H        1 ZINC000072318106    0.1300
49     H49    -9.6286    2.9583    2.9432 H        1 ZINC000072318106    0.1300
50     H50    -9.2114    0.1373    0.0820 H        1 ZINC000072318106    0.1600
51     H51   -10.7624   -1.5050    1.7144 H        1 ZINC000072318106    0.1700
52     H52   -13.7784   -2.4031    0.7726 H        1 ZINC000072318106    0.0800
53     H53   -13.5032   -4.1096    1.1973 H        1 ZINC000072318106    0.0900
54     H54   -12.9825   -2.8206    2.3090 H        1 ZINC000072318106    0.0900
55     H55    -9.5876   -3.9629   -1.6052 H        1 ZINC000072318106    0.1800
@<TRIPOS>BOND
1     1     2     1
2     1     33    1
3     1     34    1
4     1     35    1
5     2     3     1
6     3     26    ar
7     3     4     ar
8     4     5     ar
9     4     36    1
10    5     6     1
11    5     24    ar
12    6     7     1
13    6     37    1
14    7     23    ar
15    7     8     ar
16    8     9     ar
17    8     38    1
18    9     10    ar
19    10    11    1
20    10    13    ar
21    11    12    3
22    13    14    1
23    13    23    ar
24    14    15    1
25    15    16    1
26    15    17    1
27    15    18    1
28    17    39    1
29    17    40    1
30    17    41    1
31    18    19    1
32    18    42    1
33    18    43    1
34    19    20    1
35    19    21    1
36    19    22    1
37    21    44    1
38    21    45    1
39    21    46    1
40    22    47    1
41    22    48    1
42    22    49    1
43    24    25    ar
44    25    26    ar
45    25    50    1
46    26    27    1
47    27    32    1
48    27    28    2
49    28    29    1
50    28    51    1
51    29    30    1
52    29    31    1
53    30    52    1
54    30    53    1
55    30    54    1
56    31    32    2
57    32    55    1
@<TRIPOS>SUBSTRUCTURE
1   ZINC000072318106 1     RESIDUE    1   A     ZIN   1
