@<TRIPOS>MOLECULE
ZINC000003873287
50    53    1     0     0
SMALL
USER_CHARGES
@<TRIPOS>ATOM
1      N1      1.0424    0.4554   -0.0287 N.am     1 ZINC000003873287   -1.2500
2      S2      0.1495   -0.9268    0.1578 S.o2     1 ZINC000003873287    2.7100
3      O3      1.0805   -1.9960    0.2544 O.2      1 ZINC000003873287   -0.9600
4      O4     -0.8191   -0.6468    1.1592 O.2      1 ZINC000003873287   -0.9600
5      C5     -0.7425   -1.1776   -1.3409 C.ar     1 ZINC000003873287   -0.7000
6      C6     -2.0003   -0.6242   -1.4960 C.ar     1 ZINC000003873287    0.0000
7      C7     -2.7023   -0.8193   -2.6692 C.ar     1 ZINC000003873287   -0.1700
8      C8     -2.1434   -1.5719   -3.6942 C.ar     1 ZINC000003873287    0.2300
9      N9     -2.8512   -1.7710   -4.8833 N.pl3    1 ZINC000003873287   -0.6400
10     C10    -2.1703   -1.8659   -6.0880 C.ar     1 ZINC000003873287    0.6000
11     N11    -2.8525   -2.1609   -7.1875 N.ar     1 ZINC000003873287   -0.6000
12     C12    -2.2452   -2.2624   -8.3644 C.ar     1 ZINC000003873287    0.4500
13     O13    -2.9499   -2.5636   -9.4821 O.3      1 ZINC000003873287   -0.3000
14     C14    -4.3566   -2.7625   -9.3282 C.3      1 ZINC000003873287    0.0700
15     C15    -4.9770   -3.0910  -10.6877 C.3      1 ZINC000003873287   -0.0900
16     C16    -4.4311   -4.4302  -11.1871 C.3      1 ZINC000003873287   -0.1100
17     C17    -5.0514   -4.7588  -12.5466 C.3      1 ZINC000003873287   -0.1200
18     C18    -6.5722   -4.8489  -12.4048 C.3      1 ZINC000003873287   -0.1200
19     C19    -7.1181   -3.5097  -11.9054 C.3      1 ZINC000003873287   -0.1200
20     C20    -6.4977   -3.1812  -10.5459 C.3      1 ZINC000003873287   -0.1100
21     C21    -0.8687   -2.0524   -8.4269 C.ar     1 ZINC000003873287   -0.1200
22     N22     0.0803   -2.0702   -9.4301 N.pl3    1 ZINC000003873287   -0.5700
23     C23     1.2707   -1.7831   -8.8577 C.2      1 ZINC000003873287    0.3100
24     N24     1.1183   -1.5909   -7.5769 N.2      1 ZINC000003873287   -0.4900
25     C25    -0.1774   -1.7417   -7.2437 C.ar     1 ZINC000003873287    0.3600
26     N26    -0.8661   -1.6540   -6.1017 N.ar     1 ZINC000003873287   -0.5400
27     C27    -0.8797   -2.1261   -3.5353 C.ar     1 ZINC000003873287   -0.1300
28     C28    -0.1809   -1.9228   -2.3615 C.ar     1 ZINC000003873287    0.0000
29     H29     2.0092    0.4214    0.0421 H        1 ZINC000003873287    0.4200
30     H30     0.5988    1.2982   -0.2126 H        1 ZINC000003873287    0.4200
31     H31    -2.4342   -0.0391   -0.6987 H        1 ZINC000003873287    0.1400
32     H32    -3.6848   -0.3873   -2.7895 H        1 ZINC000003873287    0.1400
33     H33    -3.8184   -1.8427   -4.8658 H        1 ZINC000003873287    0.4300
34     H34    -4.5336   -3.5882   -8.6390 H        1 ZINC000003873287    0.0700
35     H35    -4.8107   -1.8545   -8.9316 H        1 ZINC000003873287    0.0700
36     H36    -4.7244   -2.3068  -11.4014 H        1 ZINC000003873287    0.0800
37     H37    -3.3477   -4.3660  -11.2881 H        1 ZINC000003873287    0.0700
38     H38    -4.6836   -5.2144  -10.4735 H        1 ZINC000003873287    0.0600
39     H39    -4.7989   -3.9746  -13.2603 H        1 ZINC000003873287    0.0600
40     H40    -4.6625   -5.7128  -12.9024 H        1 ZINC000003873287    0.0600
41     H41    -7.0141   -5.0830  -13.3733 H        1 ZINC000003873287    0.0600
42     H42    -6.8247   -5.6331  -11.6912 H        1 ZINC000003873287    0.0600
43     H43    -6.8655   -2.7255  -12.6191 H        1 ZINC000003873287    0.0600
44     H44    -8.2015   -3.5739  -11.8044 H        1 ZINC000003873287    0.0700
45     H45    -6.7503   -3.9654   -9.8323 H        1 ZINC000003873287    0.0700
46     H46    -6.8866   -2.2271  -10.1901 H        1 ZINC000003873287    0.0700
47     H47    -0.0777   -2.2545  -10.3692 H        1 ZINC000003873287    0.4300
48     H48     2.2116   -1.7222   -9.3845 H        1 ZINC000003873287    0.2300
49     H49    -0.4423   -2.7118   -4.3303 H        1 ZINC000003873287    0.1500
50     H50     0.8019   -2.3530   -2.2374 H        1 ZINC000003873287    0.1400
@<TRIPOS>BOND
1     1     2     am
2     1     29    1
3     1     30    1
4     2     3     2
5     2     4     2
6     2     5     1
7     5     28    ar
8     5     6     ar
9     6     7     ar
10    6     31    1
11    7     8     ar
12    7     32    1
13    8     9     1
14    8     27    ar
15    9     10    1
16    9     33    1
17    10    26    ar
18    10    11    ar
19    11    12    ar
20    12    13    1
21    12    21    ar
22    13    14    1
23    14    15    1
24    14    34    1
25    14    35    1
26    15    20    1
27    15    16    1
28    15    36    1
29    16    17    1
30    16    37    1
31    16    38    1
32    17    18    1
33    17    39    1
34    17    40    1
35    18    19    1
36    18    41    1
37    18    42    1
38    19    20    1
39    19    43    1
40    19    44    1
41    20    45    1
42    20    46    1
43    21    25    ar
44    21    22    1
45    22    23    1
46    22    47    1
47    23    24    2
48    23    48    1
49    24    25    1
50    25    26    ar
51    27    28    ar
52    27    49    1
53    28    50    1
@<TRIPOS>SUBSTRUCTURE
1   ZINC000003873287 1     RESIDUE    1   A     ZIN   1
