@<TRIPOS>MOLECULE
ZINC000040413299
  49   51    0    0    0
SMALL
USER_CHARGES
NO_NAME
@<TRIPOS>ATOM
    1 C1        2.5100    -0.3091     2.3602 C.3    1 <0>       0.0300
    2 O2        1.6699    -1.1204     1.5368 O.3    1 <0>      -0.3100
    3 C3        2.2590    -1.7531     0.4883 C.ar   1 <0>       0.2100
    4 C4        1.5008    -2.5515    -0.3541 C.ar   1 <0>      -0.2400
    5 C5        2.1030    -3.1979    -1.4254 C.ar   1 <0>       0.2800
    6 N6        1.3392    -4.0026    -2.2755 N.pl3  1 <0>      -0.6400
    7 C7        1.9063    -4.5362    -3.4132 C.2    1 <0>       0.4700
    8 C8        1.9101    -5.9268    -3.6130 C.2    1 <0>      -0.2300
    9 C9        1.3197    -6.8358    -2.6312 C.2    1 <0>       0.5900
   10 N10       1.4339    -8.1689    -2.7930 N.am   1 <0>      -0.8400
   11 O11       0.7249    -6.3882    -1.6675 O.2    1 <0>      -0.5400
   12 C12       2.5283    -6.4333    -4.8440 C.2    1 <0>       0.3100
   13 N13       2.7054    -7.6372    -5.3433 N.2    1 <0>      -0.4900
   14 C14       3.3398    -7.5380    -6.5208 C.2    1 <0>       0.0600
   15 C15       3.5722    -6.2361    -6.7769 C.2    1 <0>      -0.1000
   16 N16       3.0627    -5.5193    -5.7209 N.pl3  1 <0>      -0.4400
   17 C17       3.0065    -4.1869    -5.4295 C.2    1 <0>       0.6400
   18 N18       3.5441    -3.2933    -6.3154 N.pl3  1 <0>      -0.7000
   19 C19       3.4973    -1.8577    -6.0271 C.3    1 <0>       0.1100
   20 C20       4.1620    -1.0863    -7.1690 C.3    1 <0>      -0.0200
   21 N21       4.1151     0.3532    -6.8800 N.4    1 <0>      -0.6300
   22 H22       3.1540     0.6471    -6.7903 H      1 <0>       0.4400
   23 H23       4.6055     0.5394    -6.0180 H      1 <0>       0.4400
   24 H24       4.5535     0.8619    -7.6330 H      1 <0>       0.4500
   25 N25       2.4482    -3.7333    -4.3305 N.2    1 <0>      -0.5700
   26 C26       3.4642    -3.0440    -1.6519 C.ar   1 <0>      -0.2400
   27 C27       4.2210    -2.2452    -0.8085 C.ar   1 <0>       0.2000
   28 O28       5.5532    -2.0944    -1.0301 O.3    1 <0>      -0.3200
   29 C29       6.2713    -1.2570    -0.1217 C.3    1 <0>       0.0300
   30 C30       3.6176    -1.5954     0.2580 C.ar   1 <0>      -0.3300
   31 H31       3.2972    -0.9253     2.7947 H      1 <0>       0.0600
   32 H32       2.9580     0.4800     1.7562 H      1 <0>       0.0600
   33 H33       1.9158     0.1369     3.1577 H      1 <0>       0.1100
   34 H34       0.4422    -2.6710    -0.1770 H      1 <0>       0.1400
   35 H35       0.4102    -4.1857    -2.0650 H      1 <0>       0.4400
   36 H36       1.9077    -8.5255    -3.5606 H      1 <0>       0.4100
   37 H37       1.0423    -8.7719    -2.1418 H      1 <0>       0.4100
   38 H38       3.6180    -8.3645    -7.1578 H      1 <0>       0.1900
   39 H39       4.0662    -5.8317    -7.6480 H      1 <0>       0.1900
   40 H40       3.9563    -3.6104    -7.1343 H      1 <0>       0.4200
   41 H41       2.4590    -1.5403    -5.9303 H      1 <0>       0.1000
   42 H42       4.0271    -1.6566    -5.0960 H      1 <0>       0.1000
   43 H43       5.2003    -1.4038    -7.2659 H      1 <0>       0.1400
   44 H44       3.6322    -1.2874    -8.1001 H      1 <0>       0.1400
   45 H45       3.9335    -3.5466    -2.4847 H      1 <0>       0.1200
   46 H46       5.8542    -0.2503    -0.1485 H      1 <0>       0.0600
   47 H47       6.1859    -1.6589     0.8879 H      1 <0>       0.0600
   48 H48       7.3215    -1.2230    -0.4116 H      1 <0>       0.1000
   49 H49       4.2076    -0.9730     0.9144 H      1 <0>       0.1400
@<TRIPOS>BOND
   1    1    2 1
   2    1   31 1
   3    1   32 1
   4    1   33 1
   5    2    3 1
   6    3   30 ar
   7    3    4 ar
   8    4    5 ar
   9    4   34 1
  10    5    6 1
  11    5   26 ar
  12    6    7 1
  13    6   35 1
  14    7   25 1
  15    7    8 2
  16    8    9 1
  17    8   12 1
  18    9   10 am
  19    9   11 2
  20   10   36 1
  21   10   37 1
  22   12   16 1
  23   12   13 2
  24   13   14 1
  25   14   15 2
  26   14   38 1
  27   15   16 1
  28   15   39 1
  29   16   17 1
  30   17   18 1
  31   17   25 2
  32   18   19 1
  33   18   40 1
  34   19   20 1
  35   19   41 1
  36   19   42 1
  37   20   21 1
  38   20   43 1
  39   20   44 1
  40   21   22 1
  41   21   23 1
  42   21   24 1
  43   26   27 ar
  44   26   45 1
  45   27   28 1
  46   27   30 ar
  47   28   29 1
  48   29   46 1
  49   29   47 1
  50   29   48 1
  51   30   49 1
