@<TRIPOS>MOLECULE
ZINC000000587541
48    51    1     0     0
SMALL
USER_CHARGES
@<TRIPOS>ATOM
1      C1     -0.0317    1.5026    0.0117 C.3      1 ZINC000000587541   -0.1300
2      C2     -0.0110   -0.0042    0.0033 C.ar     1 ZINC000000587541    0.0100
3      C3     -0.1165   -0.6841   -1.1766 C.ar     1 ZINC000000587541   -0.0100
4      F4     -0.2394   -0.0027   -2.3366 F        1 ZINC000000587541   -0.1400
5      C5     -0.0974   -2.0815   -1.1894 C.ar     1 ZINC000000587541    0.1200
6      N6     -0.2049   -2.7627   -2.3993 N.3      1 ZINC000000587541   -0.4800
7      C7     -0.2393   -1.8249   -3.5305 C.3      1 ZINC000000587541    0.0100
8      C8     -0.2974   -2.6130   -4.8410 C.3      1 ZINC000000587541   -0.0100
9      N9     -1.4963   -3.4615   -4.8495 N.4      1 ZINC000000587541   -0.5100
10     H10    -2.3180   -2.8833   -4.7568 H        1 ZINC000000587541    0.4200
11     H11    -1.5408   -3.9719   -5.7188 H        1 ZINC000000587541    0.4300
12     C12    -1.4357   -4.4090   -3.7287 C.3      1 ZINC000000587541    0.0300
13     H13    -0.5415   -5.0253   -3.8219 H        1 ZINC000000587541    0.1500
14     C14    -2.6764   -5.3040   -3.7499 C.3      1 ZINC000000587541   -0.1800
15     C15    -1.3871   -3.6358   -2.4090 C.3      1 ZINC000000587541    0.0300
16     C16     0.0280   -2.7945   -0.0082 C.ar     1 ZINC000000587541   -0.1800
17     C17     0.1358   -2.1164    1.2003 C.ar     1 ZINC000000587541    0.2300
18     C18     0.1218   -0.7098    1.2020 C.ar     1 ZINC000000587541   -0.1900
19     C19     0.2368   -0.0048    2.4896 C.2      1 ZINC000000587541    0.4100
20     O20     0.2298    1.2124    2.5498 O.2      1 ZINC000000587541   -0.4300
21     C21     0.3601   -0.8325    3.7021 C.2      1 ZINC000000587541   -0.2800
22     C22     0.4785   -0.2067    5.0230 C.2      1 ZINC000000587541    0.5300
23     O23     0.5804   -0.9042    6.0238 O.co2    1 ZINC000000587541   -0.7000
24     O24     0.4754    1.0132    5.1248 O.co2    1 ZINC000000587541   -0.6600
25     C25     0.3618   -2.2083    3.5740 C.2      1 ZINC000000587541    0.1400
26     N26     0.2613   -2.8130    2.3843 N.pl3    1 ZINC000000587541   -0.4600
27     C27     0.2713   -4.2772    2.3387 C.3      1 ZINC000000587541    0.0400
28     C28     0.4754   -5.0237    3.6586 C.3      1 ZINC000000587541   -0.1700
29     C29    -0.9013   -5.0123    2.9911 C.3      1 ZINC000000587541   -0.1800
30     H30     0.9908    1.8799    0.0277 H        1 ZINC000000587541    0.0900
31     H31    -0.5383    1.8640   -0.8832 H        1 ZINC000000587541    0.0600
32     H32    -0.5625    1.8538    0.8965 H        1 ZINC000000587541    0.1100
33     H33    -1.1209   -1.1891   -3.4491 H        1 ZINC000000587541    0.0900
34     H34     0.6581   -1.2064   -3.5176 H        1 ZINC000000587541    0.1400
35     H35    -0.3373   -1.9192   -5.6807 H        1 ZINC000000587541    0.1400
36     H36     0.5910   -3.2385   -4.9284 H        1 ZINC000000587541    0.1400
37     H37    -2.7110   -5.8549   -4.6899 H        1 ZINC000000587541    0.0900
38     H38    -2.6315   -6.0071   -2.9182 H        1 ZINC000000587541    0.1100
39     H39    -3.5707   -4.6878   -3.6568 H        1 ZINC000000587541    0.0800
40     H40    -1.3271   -4.3385   -1.5779 H        1 ZINC000000587541    0.1300
41     H41    -2.2876   -3.0298   -2.3091 H        1 ZINC000000587541    0.0700
42     H42     0.0416   -3.8742   -0.0264 H        1 ZINC000000587541    0.1400
43     H43     0.4522   -2.8155    4.4625 H        1 ZINC000000587541    0.1800
44     H44     0.7033   -4.7167    1.4396 H        1 ZINC000000587541    0.1400
45     H45     1.0419   -5.9544    3.6281 H        1 ZINC000000587541    0.1100
46     H46     0.6022   -4.4253    4.5608 H        1 ZINC000000587541    0.1200
47     H47    -1.6802   -4.4065    3.4541 H        1 ZINC000000587541    0.1100
48     H48    -1.2404   -5.9356    2.5214 H        1 ZINC000000587541    0.1100
@<TRIPOS>BOND
1     1     2     1
2     1     30    1
3     1     31    1
4     1     32    1
5     2     18    ar
6     2     3     ar
7     3     4     1
8     3     5     ar
9     5     6     1
10    5     16    ar
11    6     15    1
12    6     7     1
13    7     8     1
14    7     33    1
15    7     34    1
16    8     9     1
17    8     35    1
18    8     36    1
19    9     10    1
20    9     11    1
21    9     12    1
22    12    13    1
23    12    14    1
24    12    15    1
25    14    37    1
26    14    38    1
27    14    39    1
28    15    40    1
29    15    41    1
30    16    17    ar
31    16    42    1
32    17    26    1
33    17    18    ar
34    18    19    1
35    19    20    2
36    19    21    1
37    21    22    1
38    21    25    2
39    22    23    ar
40    22    24    ar
41    25    26    1
42    25    43    1
43    26    27    1
44    27    29    1
45    27    28    1
46    27    44    1
47    28    29    1
48    28    45    1
49    28    46    1
50    29    47    1
51    29    48    1
@<TRIPOS>SUBSTRUCTURE
1   ZINC000000587541 1     RESIDUE    1   A     ZIN   1
