@<TRIPOS>MOLECULE
ZINC000004716487
  33   34    0    0    0
SMALL
USER_CHARGES
NO_NAME
@<TRIPOS>ATOM
    1 C1        4.1149    -1.5369     0.0361 C.3    1 <0>       0.0300
    2 O2        2.7569    -1.9811     0.0175 O.3    1 <0>      -0.3200
    3 C3        2.0009    -1.6068    -1.0452 C.ar   1 <0>       0.2100
    4 C4        2.5525    -0.8349    -2.0507 C.ar   1 <0>      -0.3600
    5 C5        1.7800    -0.4502    -3.1394 C.ar   1 <0>       0.1800
    6 O6        2.3289     0.3080    -4.1221 O.3    1 <0>      -0.5100
    7 C7        0.4491    -0.8375    -3.2280 C.ar   1 <0>      -0.3100
    8 C8       -0.1181    -1.6097    -2.2309 C.ar   1 <0>       0.3300
    9 O9       -1.4183    -1.9870    -2.3193 O.3    1 <0>      -0.7000
   10 C10       0.6572    -2.0074    -1.1296 C.ar   1 <0>      -0.3400
   11 C11       0.0620    -2.8290    -0.0641 C.2    1 <0>       0.4800
   12 O12      -0.3916    -2.2971     0.9337 O.2    1 <0>      -0.4800
   13 C13       0.0147    -4.2860    -0.2029 C.2    1 <0>      -0.1700
   14 C14      -0.6234    -5.0315     0.7229 C.2    1 <0>      -0.0700
   15 C15      -0.6709    -6.4957     0.5834 C.ar   1 <0>      -0.0500
   16 C16      -0.0507    -7.1187    -0.5045 C.ar   1 <0>      -0.1100
   17 C17      -0.0992    -8.4911    -0.6278 C.ar   1 <0>      -0.1200
   18 C18      -0.7598    -9.2520     0.3211 C.ar   1 <0>      -0.1200
   19 C19      -1.3760    -8.6430     1.4005 C.ar   1 <0>      -0.1200
   20 C20      -1.3314    -7.2720     1.5411 C.ar   1 <0>      -0.1100
   21 H21       4.6345    -1.9197    -0.8423 H      1 <0>       0.0500
   22 H22       4.1409    -0.4472     0.0274 H      1 <0>       0.0500
   23 H23       4.6052    -1.9048     0.9373 H      1 <0>       0.0900
   24 H24       3.5867    -0.5298    -1.9896 H      1 <0>       0.1100
   25 H25       2.7296    -0.2050    -4.8372 H      1 <0>       0.3800
   26 H26      -0.1445    -0.5346    -4.0779 H      1 <0>       0.1100
   27 H27       0.4907    -4.7638    -1.0464 H      1 <0>       0.1300
   28 H28      -1.0994    -4.5537     1.5664 H      1 <0>       0.1300
   29 H29       0.4646    -6.5263    -1.2461 H      1 <0>       0.1300
   30 H30       0.3792    -8.9737    -1.4673 H      1 <0>       0.1200
   31 H31      -0.7949   -10.3265     0.2185 H      1 <0>       0.1200
   32 H32      -1.8898    -9.2435     2.1366 H      1 <0>       0.1200
   33 H33      -1.8124    -6.7983     2.3841 H      1 <0>       0.1300
@<TRIPOS>BOND
   1    1    2 1
   2    1   21 1
   3    1   22 1
   4    1   23 1
   5    2    3 1
   6    3   10 ar
   7    3    4 ar
   8    4    5 ar
   9    4   24 1
  10    5    6 1
  11    5    7 ar
  12    6   25 1
  13    7    8 ar
  14    7   26 1
  15    8    9 1
  16    8   10 ar
  17   10   11 1
  18   11   12 2
  19   11   13 1
  20   13   14 2
  21   13   27 1
  22   14   15 1
  23   14   28 1
  24   15   20 ar
  25   15   16 ar
  26   16   17 ar
  27   16   29 1
  28   17   18 ar
  29   17   30 1
  30   18   19 ar
  31   18   31 1
  32   19   20 ar
  33   19   32 1
  34   20   33 1
