@<TRIPOS>MOLECULE
ZINC000065494437
54    56    1     0     0
SMALL
USER_CHARGES
@<TRIPOS>ATOM
1      C1     -0.0045    1.4874    0.0135 C.3      1 ZINC000065494437   -0.2000
2      C2      0.0122   -0.0195    0.0086 C.2      1 ZINC000065494437    0.4000
3      O3      1.0694   -0.6144   -0.0007 O.2      1 ZINC000065494437   -0.4500
4      C4     -1.2505   -0.7673    0.0151 C.ar     1 ZINC000065494437   -0.1700
5      C5     -2.4721   -0.0824    0.0201 C.ar     1 ZINC000065494437   -0.0500
6      C6     -3.6539   -0.7864    0.0262 C.ar     1 ZINC000065494437   -0.1300
7      C7     -3.6379   -2.1783    0.0274 C.ar     1 ZINC000065494437    0.1200
8      N8     -4.8350   -2.8854    0.0331 N.3      1 ZINC000065494437   -0.4800
9      C9     -4.5923   -4.3305    0.1364 C.3      1 ZINC000065494437    0.0200
10     C10    -5.9285   -5.0575    0.3217 C.3      1 ZINC000065494437    0.1300
11     N11    -6.8341   -4.6550   -0.7651 N.am     1 ZINC000065494437   -0.6300
12     C12    -7.4751   -5.5781   -1.5090 C.2      1 ZINC000065494437    0.7100
13     O13    -7.2368   -6.7597   -1.3495 O.2      1 ZINC000065494437   -0.5800
14     N14    -8.3802   -5.1915   -2.4297 N.am     1 ZINC000065494437   -0.7400
15     C15    -9.1557   -6.1962   -3.1615 C.3      1 ZINC000065494437    0.2400
16     H16    -9.3689   -7.0397   -2.5049 H        1 ZINC000065494437    0.0900
17     C17    -8.3514   -6.6808   -4.3695 C.3      1 ZINC000065494437   -0.1600
18     C18   -10.4508   -5.5862   -3.6322 C.2      1 ZINC000065494437   -0.1900
19     C19   -11.5951   -6.2410   -3.8989 C.2      1 ZINC000065494437    0.0000
20     C20   -11.8085   -7.7279   -3.7772 C.3      1 ZINC000065494437   -0.0800
21     O21   -12.5154   -5.3450   -4.2912 O.3      1 ZINC000065494437   -0.1700
22     C22   -11.9759   -4.1151   -4.2806 C.2      1 ZINC000065494437   -0.0100
23     C23   -12.6842   -2.8388   -4.6551 C.3      1 ZINC000065494437   -0.0800
24     C24   -10.6981   -4.2150   -3.8724 C.2      1 ZINC000065494437   -0.2100
25     C25    -7.0212   -3.2184   -1.0189 C.3      1 ZINC000065494437    0.1200
26     C26    -5.6420   -2.5638   -1.1515 C.3      1 ZINC000065494437    0.0400
27     C27    -2.4239   -2.8658    0.0225 C.ar     1 ZINC000065494437    0.0400
28     F28    -2.4132   -4.2167    0.0237 F        1 ZINC000065494437   -0.1300
29     C29    -1.2371   -2.1689    0.0105 C.ar     1 ZINC000065494437   -0.0700
30     H30     1.0191    1.8621    0.0075 H        1 ZINC000065494437    0.0900
31     H31    -0.5285    1.8479   -0.8717 H        1 ZINC000065494437    0.1000
32     H32    -0.5160    1.8422    0.9083 H        1 ZINC000065494437    0.1000
33     H33    -2.4863    0.9975    0.0194 H        1 ZINC000065494437    0.1400
34     H34    -4.5959   -0.2582    0.0304 H        1 ZINC000065494437    0.1400
35     H35    -4.1091   -4.6841   -0.7744 H        1 ZINC000065494437    0.0700
36     H36    -3.9475   -4.5308    0.9920 H        1 ZINC000065494437    0.1100
37     H37    -5.7674   -6.1349    0.2841 H        1 ZINC000065494437    0.1000
38     H38    -6.3645   -4.7830    1.2822 H        1 ZINC000065494437    0.0800
39     H39    -8.5182   -4.2480   -2.6079 H        1 ZINC000065494437    0.3900
40     H40    -8.9284   -7.4283   -4.9139 H        1 ZINC000065494437    0.0700
41     H41    -8.1383   -5.8373   -5.0261 H        1 ZINC000065494437    0.0600
42     H42    -7.4147   -7.1220   -4.0290 H        1 ZINC000065494437    0.0700
43     H43   -12.1576   -7.9638   -2.7719 H        1 ZINC000065494437    0.0800
44     H44   -12.5536   -8.0487   -4.5052 H        1 ZINC000065494437    0.0800
45     H45   -10.8687   -8.2465   -3.9666 H        1 ZINC000065494437    0.0900
46     H46   -13.7120   -3.0637   -4.9399 H        1 ZINC000065494437    0.0800
47     H47   -12.6838   -2.1594   -3.8026 H        1 ZINC000065494437    0.0900
48     H48   -12.1692   -2.3699   -5.4935 H        1 ZINC000065494437    0.0900
49     H49    -9.9939   -3.4043   -3.7575 H        1 ZINC000065494437    0.1400
50     H50    -7.5826   -3.0799   -1.9429 H        1 ZINC000065494437    0.0800
51     H51    -7.5623   -2.7671   -0.1872 H        1 ZINC000065494437    0.0800
52     H52    -5.7584   -1.4829   -1.2298 H        1 ZINC000065494437    0.1000
53     H53    -5.1442   -2.9421   -2.0443 H        1 ZINC000065494437    0.0500
54     H54    -0.2973   -2.7009    0.0064 H        1 ZINC000065494437    0.1500
@<TRIPOS>BOND
1     1     2     1
2     1     30    1
3     1     31    1
4     1     32    1
5     2     3     2
6     2     4     1
7     4     29    ar
8     4     5     ar
9     5     6     ar
10    5     33    1
11    6     7     ar
12    6     34    1
13    7     8     1
14    7     27    ar
15    8     26    1
16    8     9     1
17    9     10    1
18    9     35    1
19    9     36    1
20    10    11    1
21    10    37    1
22    10    38    1
23    11    12    am
24    11    25    1
25    12    13    2
26    12    14    am
27    14    15    1
28    14    39    1
29    15    16    1
30    15    17    1
31    15    18    1
32    17    40    1
33    17    41    1
34    17    42    1
35    18    24    1
36    18    19    2
37    19    20    1
38    19    21    1
39    20    43    1
40    20    44    1
41    20    45    1
42    21    22    1
43    22    23    1
44    22    24    2
45    23    46    1
46    23    47    1
47    23    48    1
48    24    49    1
49    25    26    1
50    25    50    1
51    25    51    1
52    26    52    1
53    26    53    1
54    27    28    1
55    27    29    ar
56    29    54    1
@<TRIPOS>SUBSTRUCTURE
1   ZINC000065494437 1     RESIDUE    1   A     ZIN   1
