@<TRIPOS>MOLECULE
ZINC000013340605
48    49    1     0     0
SMALL
USER_CHARGES
@<TRIPOS>ATOM
1      C1     -0.1072    1.1190    0.5613 C.3      1 ZINC000013340605    0.0300
2      O2     -0.0986   -0.3069    0.4682 O.3      1 ZINC000013340605   -0.3100
3      C3     -1.3026   -0.9252    0.3733 C.ar     1 ZINC000013340605    0.1200
4      C4     -2.4711   -0.1687    0.3644 C.ar     1 ZINC000013340605   -0.2100
5      C5     -3.6882   -0.7791    0.2694 C.ar     1 ZINC000013340605   -0.0200
6      C6     -4.9471    0.0492    0.2605 C.3      1 ZINC000013340605   -0.0700
7      C7     -5.4930    0.1626    1.6853 C.3      1 ZINC000013340605   -0.0800
8      C8     -6.7519    0.9910    1.6765 C.ar     1 ZINC000013340605   -0.0700
9      C9     -6.6782    2.3620    1.8373 C.ar     1 ZINC000013340605   -0.1200
10     C10    -7.8329    3.1219    1.8292 C.ar     1 ZINC000013340605   -0.1300
11     C11    -9.0613    2.5108    1.6599 C.ar     1 ZINC000013340605   -0.1300
12     C12    -9.1349    1.1399    1.4982 C.ar     1 ZINC000013340605   -0.1200
13     C13    -7.9798    0.3805    1.5020 C.ar     1 ZINC000013340605   -0.1100
14     C14    -3.7684   -2.1740    0.1796 C.ar     1 ZINC000013340605   -0.1600
15     C15    -5.0772   -2.8327    0.0768 C.2      1 ZINC000013340605    0.5400
16     O16    -5.5528   -3.0805   -1.0233 O.co2    1 ZINC000013340605   -0.6900
17     O17    -5.6921   -3.1337    1.0912 O.co2    1 ZINC000013340605   -0.6800
18     C18    -2.5908   -2.9410    0.1879 C.ar     1 ZINC000013340605    0.1500
19     O19    -2.6566   -4.2927    0.1010 O.3      1 ZINC000013340605   -0.4800
20     C20    -1.3631   -2.3083    0.2799 C.ar     1 ZINC000013340605   -0.1400
21     C21    -0.0942   -3.1213    0.2891 C.3      1 ZINC000013340605   -0.0400
22     C22     0.3922   -3.3094   -1.1248 C.2      1 ZINC000013340605   -0.1400
23     C23     1.5825   -2.8850   -1.4699 C.2      1 ZINC000013340605   -0.1400
24     C24     2.4661   -2.2103   -0.4525 C.3      1 ZINC000013340605   -0.1200
25     C25     2.0683   -3.0715   -2.8842 C.3      1 ZINC000013340605   -0.1100
26     H26     0.9172    1.4847    0.6316 H        1 ZINC000013340605    0.0900
27     H27    -0.5826    1.5382   -0.3254 H        1 ZINC000013340605    0.0500
28     H28    -0.6627    1.4218    1.4489 H        1 ZINC000013340605    0.0500
29     H29    -2.4144    0.9076    0.4334 H        1 ZINC000013340605    0.1200
30     H30    -4.7243    1.0447   -0.1235 H        1 ZINC000013340605    0.0600
31     H31    -5.6915   -0.4278   -0.3769 H        1 ZINC000013340605    0.0800
32     H32    -5.7158   -0.8329    2.0693 H        1 ZINC000013340605    0.1000
33     H33    -4.7486    0.6397    2.3228 H        1 ZINC000013340605    0.0600
34     H34    -5.7185    2.8394    1.9695 H        1 ZINC000013340605    0.1200
35     H35    -7.7755    4.1929    1.9555 H        1 ZINC000013340605    0.1200
36     H36    -9.9635    3.1044    1.6543 H        1 ZINC000013340605    0.1200
37     H37   -10.0946    0.6625    1.3663 H        1 ZINC000013340605    0.1200
38     H38    -8.0373   -0.6905    1.3757 H        1 ZINC000013340605    0.1300
39     H39    -2.6340   -4.6302   -0.8049 H        1 ZINC000013340605    0.3900
40     H40     0.6672   -2.5998    0.8690 H        1 ZINC000013340605    0.0800
41     H41    -0.2898   -4.0949    0.7386 H        1 ZINC000013340605    0.0800
42     H42    -0.2406   -3.7940   -1.8536 H        1 ZINC000013340605    0.1000
43     H43     3.0067   -2.9660    0.1174 H        1 ZINC000013340605    0.0600
44     H44     3.1782   -1.5618   -0.9628 H        1 ZINC000013340605    0.0500
45     H45     1.8526   -1.6151    0.2238 H        1 ZINC000013340605    0.0800
46     H46     1.2983   -3.5743   -3.4694 H        1 ZINC000013340605    0.0600
47     H47     2.2829   -2.0984   -3.3259 H        1 ZINC000013340605    0.0600
48     H48     2.9748   -3.6767   -2.8802 H        1 ZINC000013340605    0.0600
@<TRIPOS>BOND
1     1     2     1
2     1     26    1
3     1     27    1
4     1     28    1
5     2     3     1
6     3     20    ar
7     3     4     ar
8     4     5     ar
9     4     29    1
10    5     6     1
11    5     14    ar
12    6     7     1
13    6     30    1
14    6     31    1
15    7     8     1
16    7     32    1
17    7     33    1
18    8     13    ar
19    8     9     ar
20    9     10    ar
21    9     34    1
22    10    11    ar
23    10    35    1
24    11    12    ar
25    11    36    1
26    12    13    ar
27    12    37    1
28    13    38    1
29    14    15    1
30    14    18    ar
31    15    16    ar
32    15    17    ar
33    18    19    1
34    18    20    ar
35    19    39    1
36    20    21    1
37    21    22    1
38    21    40    1
39    21    41    1
40    22    23    2
41    22    42    1
42    23    24    1
43    23    25    1
44    24    43    1
45    24    44    1
46    24    45    1
47    25    46    1
48    25    47    1
49    25    48    1
@<TRIPOS>SUBSTRUCTURE
1   ZINC000013340605 1     RESIDUE    1   A     ZIN   1
