@<TRIPOS>MOLECULE
ZINC000001529208
27    26    1     0     0
SMALL
USER_CHARGES
@<TRIPOS>ATOM
1      C1      0.1648    1.4925    0.0021 C.3      1 ZINC000001529208   -0.1200
2      C2      0.0918   -0.0127   -0.0046 C.2      1 ZINC000001529208   -0.1300
3      C3      0.2379   -0.7799    1.2843 C.3      1 ZINC000001529208   -0.1200
4      C4     -0.0987   -0.6543   -1.1308 C.2      1 ZINC000001529208   -0.1700
5      C5     -0.1216    0.1019   -2.4341 C.3      1 ZINC000001529208   -0.0900
6      C6      0.8978   -0.5104   -3.3969 C.3      1 ZINC000001529208   -0.0900
7      C7      0.8749    0.2457   -4.7003 C.2      1 ZINC000001529208   -0.0300
8      C8     -0.1301   -0.1155   -5.7634 C.3      1 ZINC000001529208   -0.1400
9      C9      1.7448    1.2353   -4.9130 C.2      1 ZINC000001529208   -0.2700
10     C10     1.7226    1.9691   -6.1780 C.2      1 ZINC000001529208    0.3600
11     O11     2.5134    2.8687   -6.3713 O.2      1 ZINC000001529208   -0.4700
12     H12     0.2359    1.8482    1.0300 H        1 ZINC000001529208    0.0600
13     H13     1.0435    1.8161   -0.5559 H        1 ZINC000001529208    0.0700
14     H14    -0.7320    1.9018   -0.4629 H        1 ZINC000001529208    0.0700
15     H15    -0.7433   -0.9162    1.7392 H        1 ZINC000001529208    0.0700
16     H16     0.6816   -1.7541    1.0789 H        1 ZINC000001529208    0.0600
17     H17     0.8809   -0.2244    1.9669 H        1 ZINC000001529208    0.0600
18     H18    -0.2394   -1.7251   -1.1251 H        1 ZINC000001529208    0.1100
19     H19    -1.1177    0.0405   -2.8724 H        1 ZINC000001529208    0.0700
20     H20     0.1318    1.1464   -2.2527 H        1 ZINC000001529208    0.0700
21     H21     1.8939   -0.4490   -2.9586 H        1 ZINC000001529208    0.0800
22     H22     0.6444   -1.5549   -3.5783 H        1 ZINC000001529208    0.0800
23     H23    -1.0385    0.4692   -5.6183 H        1 ZINC000001529208    0.0800
24     H24     0.2877    0.1003   -6.7468 H        1 ZINC000001529208    0.0800
25     H25    -0.3666   -1.1773   -5.6942 H        1 ZINC000001529208    0.0800
26     H26     2.4651    1.4942   -4.1511 H        1 ZINC000001529208    0.1300
27     H27     1.0023    1.7102   -6.9399 H        1 ZINC000001529208    0.1000
@<TRIPOS>BOND
1     1     2     1
2     1     12    1
3     1     13    1
4     1     14    1
5     2     3     1
6     2     4     2
7     3     15    1
8     3     16    1
9     3     17    1
10    4     5     1
11    4     18    1
12    5     6     1
13    5     19    1
14    5     20    1
15    6     7     1
16    6     21    1
17    6     22    1
18    7     8     1
19    7     9     2
20    8     23    1
21    8     24    1
22    8     25    1
23    9     10    1
24    9     26    1
25    10    11    2
26    10    27    1
@<TRIPOS>SUBSTRUCTURE
1   ZINC000001529208 1     RESIDUE    1   A     ZIN   1
