@<TRIPOS>MOLECULE
ZINC000004259675
71    76    1     0     0
SMALL
USER_CHARGES
@<TRIPOS>ATOM
1      C1     -0.3527    1.1603   -1.0170 C.ar     1 ZINC000004259675   -0.1000
2      C2      0.7660    1.9736   -1.0013 C.ar     1 ZINC000004259675   -0.0600
3      C3      2.0139    1.4383   -0.7357 C.ar     1 ZINC000004259675   -0.1500
4      C4      3.2274    2.3317   -0.7200 C.3      1 ZINC000004259675    0.0500
5      N5      3.4335    2.8540    0.6375 N.4      1 ZINC000004259675   -0.3900
6      H6      2.5934    3.3041    0.9687 H        1 ZINC000004259675    0.4300
7      C7      3.8212    1.7532    1.5563 C.3      1 ZINC000004259675   -0.0100
8      C8      4.5268    2.4945    2.7196 C.3      1 ZINC000004259675   -0.1400
9      C9      5.2930    3.6249    1.9950 C.3      1 ZINC000004259675   -0.1500
10     C10     4.5629    3.8088    0.6506 C.3      1 ZINC000004259675   -0.0100
11     C11     2.1494    0.0885   -0.4848 C.ar     1 ZINC000004259675   -0.0400
12     C12     1.0250   -0.7370   -0.4993 C.ar     1 ZINC000004259675   -0.0400
13     C13     1.1634   -2.1860   -0.2304 C.2      1 ZINC000004259675    0.2900
14     N14     2.2067   -2.9378   -0.5114 N.2      1 ZINC000004259675   -0.3000
15     N15     1.9981   -4.1511   -0.1459 N.2      1 ZINC000004259675   -0.0100
16     N16     0.8295   -4.2654    0.3859 N.2      1 ZINC000004259675   -0.0700
17     N17     0.2418   -2.9885    0.3571 N.pl3    1 ZINC000004259675   -0.3800
18     C18    -1.0850   -2.6085    0.8485 C.3      1 ZINC000004259675    0.1200
19     H19    -1.2141   -1.5277    0.7916 H        1 ZINC000004259675    0.1500
20     C20    -2.1796   -3.3210    0.0374 C.3      1 ZINC000004259675    0.0500
21     O21    -2.9598   -4.1044    0.9429 O.3      1 ZINC000004259675   -0.3400
22     C22    -2.2106   -4.3327    2.1454 C.3      1 ZINC000004259675    0.0400
23     H23    -1.6637   -5.2754    2.1277 H        1 ZINC000004259675    0.1300
24     C24    -1.2791   -3.0949    2.2955 C.3      1 ZINC000004259675    0.0400
25     H25    -0.3356   -3.3362    2.7850 H        1 ZINC000004259675    0.1200
26     O26    -2.0594   -2.1415    3.0430 O.3      1 ZINC000004259675   -0.3300
27     C27    -2.7192   -2.9173    4.0679 C.3      1 ZINC000004259675    0.0400
28     C28    -3.1783   -4.2247    3.3474 C.3      1 ZINC000004259675   -0.0200
29     H29    -4.2128   -4.1345    3.0161 H        1 ZINC000004259675    0.1800
30     N30    -3.0242   -5.3833    4.2373 N.4      1 ZINC000004259675   -0.5000
31     H31    -3.2231   -6.2296    3.7252 H        1 ZINC000004259675    0.4400
32     H32    -2.0780   -5.4158    4.5863 H        1 ZINC000004259675    0.4300
33     C33    -3.9580   -5.2623    5.3649 C.3      1 ZINC000004259675   -0.0100
34     C34    -3.7975   -6.4689    6.2918 C.3      1 ZINC000004259675   -0.1100
35     C35    -2.4018   -6.4487    6.9182 C.3      1 ZINC000004259675   -0.1300
36     C36    -2.2412   -7.6553    7.8451 C.3      1 ZINC000004259675   -0.1200
37     C37    -3.2973   -7.5934    8.9504 C.3      1 ZINC000004259675   -0.1300
38     C38    -4.6930   -7.6136    8.3240 C.3      1 ZINC000004259675   -0.1200
39     C39    -4.8535   -6.4070    7.3971 C.3      1 ZINC000004259675   -0.1100
40     C40    -0.2301   -0.1915   -0.7675 C.ar     1 ZINC000004259675   -0.0700
41     H41    -1.3248    1.5847   -1.2205 H        1 ZINC000004259675    0.1500
42     H42     0.6650    3.0309   -1.1974 H        1 ZINC000004259675    0.1500
43     H43     4.1035    1.7599   -1.0262 H        1 ZINC000004259675    0.1400
44     H44     3.0763    3.1621   -1.4097 H        1 ZINC000004259675    0.1400
45     H45     2.9390    1.2239    1.9163 H        1 ZINC000004259675    0.1300
46     H46     4.5095    1.0659    1.0645 H        1 ZINC000004259675    0.1300
47     H47     3.7951    2.9079    3.4137 H        1 ZINC000004259675    0.1000
48     H48     5.2185    1.8299    3.2373 H        1 ZINC000004259675    0.1200
49     H49     5.2491    4.5453    2.5773 H        1 ZINC000004259675    0.1100
50     H50     6.3293    3.3319    1.8266 H        1 ZINC000004259675    0.1100
51     H51     5.2420    3.5907   -0.1736 H        1 ZINC000004259675    0.1300
52     H52     4.1895    4.8295    0.5673 H        1 ZINC000004259675    0.1400
53     H53     3.1241   -0.3282   -0.2780 H        1 ZINC000004259675    0.1500
54     H54    -2.8144   -2.5829   -0.4529 H        1 ZINC000004259675    0.1200
55     H55    -1.7218   -3.9686   -0.7103 H        1 ZINC000004259675    0.0900
56     H56    -2.0248   -3.1466    4.8763 H        1 ZINC000004259675    0.0900
57     H57    -3.5857   -2.3792    4.4522 H        1 ZINC000004259675    0.1400
58     H58    -3.7431   -4.3480    5.9181 H        1 ZINC000004259675    0.1300
59     H59    -4.9801   -5.2271    4.9879 H        1 ZINC000004259675    0.1400
60     H60    -3.9251   -7.3871    5.7183 H        1 ZINC000004259675    0.1000
61     H61    -1.6494   -6.4928    6.1307 H        1 ZINC000004259675    0.0500
62     H62    -2.2741   -5.5305    7.4916 H        1 ZINC000004259675    0.0800
63     H63    -2.3689   -8.5735    7.2717 H        1 ZINC000004259675    0.0700
64     H64    -1.2469   -7.6409    8.2914 H        1 ZINC000004259675    0.0700
65     H65    -3.1830   -8.4530    9.6108 H        1 ZINC000004259675    0.0700
66     H66    -3.1697   -6.6752    9.5239 H        1 ZINC000004259675    0.0700
67     H67    -4.8207   -8.5318    7.7506 H        1 ZINC000004259675    0.0700
68     H68    -5.4454   -7.5695    9.1115 H        1 ZINC000004259675    0.0800
69     H69    -4.7259   -5.4888    7.9705 H        1 ZINC000004259675    0.0700
70     H70    -5.8479   -6.4213    6.9508 H        1 ZINC000004259675    0.0800
71     H71    -1.1043   -0.8255   -0.7798 H        1 ZINC000004259675    0.1400
@<TRIPOS>BOND
1     1     40    ar
2     1     2     ar
3     1     41    1
4     2     3     ar
5     2     42    1
6     3     4     1
7     3     11    ar
8     4     5     1
9     4     43    1
10    4     44    1
11    5     6     1
12    5     10    1
13    5     7     1
14    7     8     1
15    7     45    1
16    7     46    1
17    8     9     1
18    8     47    1
19    8     48    1
20    9     10    1
21    9     49    1
22    9     50    1
23    10    51    1
24    10    52    1
25    11    12    ar
26    11    53    1
27    12    13    1
28    12    40    ar
29    13    17    1
30    13    14    2
31    14    15    1
32    15    16    2
33    16    17    1
34    17    18    1
35    18    19    1
36    18    24    1
37    18    20    1
38    20    21    1
39    20    54    1
40    20    55    1
41    21    22    1
42    22    23    1
43    22    28    1
44    22    24    1
45    24    25    1
46    24    26    1
47    26    27    1
48    27    28    1
49    27    56    1
50    27    57    1
51    28    29    1
52    28    30    1
53    30    31    1
54    30    32    1
55    30    33    1
56    33    34    1
57    33    58    1
58    33    59    1
59    34    39    1
60    34    35    1
61    34    60    1
62    35    36    1
63    35    61    1
64    35    62    1
65    36    37    1
66    36    63    1
67    36    64    1
68    37    38    1
69    37    65    1
70    37    66    1
71    38    39    1
72    38    67    1
73    38    68    1
74    39    69    1
75    39    70    1
76    40    71    1
@<TRIPOS>SUBSTRUCTURE
1   ZINC000004259675 1     RESIDUE    1   A     ZIN   1
