@<TRIPOS>MOLECULE
ZINC000001842811
38    38    1     0     0
SMALL
USER_CHARGES
@<TRIPOS>ATOM
1      C1     -0.0173    1.4248    0.0099 C.3      1 ZINC000001842811    0.0600
2      O2      0.0021   -0.0041    0.0020 O.3      1 ZINC000001842811   -0.7300
3      P3      0.6778   -0.8654   -1.1785 P.3      1 ZINC000001842811    2.3000
4      O4      0.5271   -2.3081   -0.8849 O.2      1 ZINC000001842811   -0.9700
5      O5     -0.0469   -0.5233   -2.5749 O.3      1 ZINC000001842811   -0.7400
6      C6     -1.4173   -0.8321   -2.8366 C.3      1 ZINC000001842811    0.0800
7      O7      2.2423   -0.4993   -1.2820 O.3      1 ZINC000001842811   -0.7100
8      C8      3.1787   -0.7840   -0.2408 C.3      1 ZINC000001842811   -0.3700
9      H9      2.6707   -0.7532    0.7232 H        1 ZINC000001842811    0.1000
10     C10     4.2804    0.2441   -0.2611 C.ar     1 ZINC000001842811   -0.1100
11     C11     4.6428    0.8449   -1.4522 C.ar     1 ZINC000001842811   -0.0500
12     C12     5.6532    1.7879   -1.4714 C.ar     1 ZINC000001842811   -0.1100
13     C13     6.3018    2.1304   -0.2984 C.ar     1 ZINC000001842811   -0.0200
14     Cl14    7.5705    3.3151   -0.3217 Cl       1 ZINC000001842811   -0.0600
15     C15     5.9386    1.5288    0.8934 C.ar     1 ZINC000001842811   -0.1100
16     C16     4.9243    0.5901    0.9123 C.ar     1 ZINC000001842811   -0.0900
17     P17     3.8902   -2.4423   -0.5000 P.3      1 ZINC000001842811    2.3500
18     O18     4.5799   -2.4841   -1.8089 O.2      1 ZINC000001842811   -0.9900
19     O19     4.9452   -2.7630    0.6730 O.3      1 ZINC000001842811   -0.7500
20     C20     5.7494   -3.9441    0.6950 C.3      1 ZINC000001842811    0.0700
21     O21     2.7132   -3.5406   -0.4783 O.3      1 ZINC000001842811   -0.7100
22     C22     2.9349   -4.9246   -0.7568 C.3      1 ZINC000001842811    0.0800
23     H23     1.0053    1.8021    0.0021 H        1 ZINC000001842811    0.0600
24     H24    -0.5445    1.7859   -0.8732 H        1 ZINC000001842811    0.0600
25     H25    -0.5275    1.7763    0.9067 H        1 ZINC000001842811    0.1100
26     H26    -1.5698   -1.9080   -2.7524 H        1 ZINC000001842811    0.0700
27     H27    -2.0502   -0.3177   -2.1134 H        1 ZINC000001842811    0.0500
28     H28    -1.6773   -0.5060   -3.8437 H        1 ZINC000001842811    0.1000
29     H29     4.1367    0.5772   -2.3679 H        1 ZINC000001842811    0.1500
30     H30     5.9365    2.2570   -2.4021 H        1 ZINC000001842811    0.1400
31     H31     6.4448    1.7955    1.8093 H        1 ZINC000001842811    0.1400
32     H32     4.6404    0.1206    1.8426 H        1 ZINC000001842811    0.1400
33     H33     5.1044   -4.8225    0.7151 H        1 ZINC000001842811    0.0600
34     H34     6.3759   -3.9736   -0.1964 H        1 ZINC000001842811    0.0700
35     H35     6.3813   -3.9369    1.5831 H        1 ZINC000001842811    0.1000
36     H36     3.6459   -5.3306   -0.0373 H        1 ZINC000001842811    0.0500
37     H37     1.9919   -5.4661   -0.6811 H        1 ZINC000001842811    0.1000
38     H38     3.3360   -5.0327   -1.7646 H        1 ZINC000001842811    0.0700
@<TRIPOS>BOND
1     1     2     1
2     1     23    1
3     1     24    1
4     1     25    1
5     2     3     1
6     3     4     2
7     3     5     1
8     3     7     1
9     5     6     1
10    6     26    1
11    6     27    1
12    6     28    1
13    7     8     1
14    8     9     1
15    8     10    1
16    8     17    1
17    10    16    ar
18    10    11    ar
19    11    12    ar
20    11    29    1
21    12    13    ar
22    12    30    1
23    13    14    1
24    13    15    ar
25    15    16    ar
26    15    31    1
27    16    32    1
28    17    18    2
29    17    19    1
30    17    21    1
31    19    20    1
32    20    33    1
33    20    34    1
34    20    35    1
35    21    22    1
36    22    36    1
37    22    37    1
38    22    38    1
@<TRIPOS>SUBSTRUCTURE
1   ZINC000001842811 1     RESIDUE    1   A     ZIN   1
