@<TRIPOS>MOLECULE
ZINC000001398640
36    38    1     0     0
SMALL
USER_CHARGES
@<TRIPOS>ATOM
1      N1      0.7352    1.0409    0.1203 N.pl3    1 ZINC000001398640   -0.8000
2      C2      0.5102   -0.3262    0.1275 C.2      1 ZINC000001398640    0.5000
3      C3     -0.7237   -0.8921   -0.1377 C.2      1 ZINC000001398640   -0.4700
4      C4     -1.9073   -0.1962   -0.4460 C.2      1 ZINC000001398640    0.4900
5      O5     -1.8771    1.0099   -0.6225 O.2      1 ZINC000001398640   -0.4800
6      C6     -3.1890   -0.9284   -0.5559 C.ar     1 ZINC000001398640   -0.1400
7      C7     -3.3643   -2.1386    0.1157 C.ar     1 ZINC000001398640   -0.0400
8      C8     -4.5617   -2.8160    0.0095 C.ar     1 ZINC000001398640   -0.1200
9      C9     -5.5870   -2.2978   -0.7613 C.ar     1 ZINC000001398640   -0.0300
10     C10    -5.4194   -1.0979   -1.4299 C.ar     1 ZINC000001398640   -0.0500
11     N11    -6.5218   -0.5504   -2.2520 N.pl3    1 ZINC000001398640    0.0300
12     O12    -7.5750   -1.1559   -2.3395 O.2      1 ZINC000001398640   -0.1500
13     O13    -6.3757    0.5056   -2.8411 O.2      1 ZINC000001398640   -0.1500
14     C14    -4.2292   -0.4081   -1.3272 C.ar     1 ZINC000001398640    0.0000
15     S15    -0.5468   -2.6410   -0.0199 S.3      1 ZINC000001398640    0.1700
16     C16     1.1093   -2.4646    0.3613 C.2      1 ZINC000001398640    0.3600
17     N17     1.9702   -3.5106    0.6086 N.pl3    1 ZINC000001398640   -0.6100
18     C18     3.2980   -3.2542    0.9647 C.ar     1 ZINC000001398640    0.1500
19     C19     3.6139   -2.1209    1.7030 C.ar     1 ZINC000001398640   -0.1000
20     C20     4.9260   -1.8701    2.0532 C.ar     1 ZINC000001398640   -0.0900
21     C21     5.9257   -2.7467    1.6694 C.ar     1 ZINC000001398640   -0.0500
22     Cl22    7.5739   -2.4287    2.1119 Cl       1 ZINC000001398640   -0.0600
23     C23     5.6137   -3.8767    0.9338 C.ar     1 ZINC000001398640   -0.0900
24     C24     4.3026   -4.1354    0.5857 C.ar     1 ZINC000001398640   -0.1300
25     N25     1.4488   -1.2076    0.3810 N.2      1 ZINC000001398640   -0.5800
26     H26     1.6212    1.3876    0.3093 H        1 ZINC000001398640    0.4100
27     H27     0.0076    1.6511   -0.0776 H        1 ZINC000001398640    0.4300
28     H28    -2.5644   -2.5445    0.7171 H        1 ZINC000001398640    0.1500
29     H29    -4.6987   -3.7530    0.5289 H        1 ZINC000001398640    0.1600
30     H30    -6.5220   -2.8322   -0.8418 H        1 ZINC000001398640    0.1600
31     H31    -4.0997    0.5282   -1.8495 H        1 ZINC000001398640    0.1600
32     H32     1.6555   -4.4253    0.5358 H        1 ZINC000001398640    0.4300
33     H33     2.8342   -1.4362    2.0025 H        1 ZINC000001398640    0.1500
34     H34     5.1723   -0.9888    2.6269 H        1 ZINC000001398640    0.1400
35     H35     6.3958   -4.5592    0.6355 H        1 ZINC000001398640    0.1400
36     H36     4.0597   -5.0173    0.0116 H        1 ZINC000001398640    0.1400
@<TRIPOS>BOND
1     1     2     1
2     1     26    1
3     1     27    1
4     2     25    1
5     2     3     2
6     3     4     1
7     3     15    1
8     4     5     2
9     4     6     1
10    6     14    ar
11    6     7     ar
12    7     8     ar
13    7     28    1
14    8     9     ar
15    8     29    1
16    9     10    ar
17    9     30    1
18    10    11    1
19    10    14    ar
20    11    12    2
21    11    13    2
22    14    31    1
23    15    16    1
24    16    17    1
25    16    25    2
26    17    18    1
27    17    32    1
28    18    24    ar
29    18    19    ar
30    19    20    ar
31    19    33    1
32    20    21    ar
33    20    34    1
34    21    22    1
35    21    23    ar
36    23    24    ar
37    23    35    1
38    24    36    1
@<TRIPOS>SUBSTRUCTURE
1   ZINC000001398640 1     RESIDUE    1   A     ZIN   1
