@<TRIPOS>MOLECULE
ZINC000013538280
53    55    1     0     0
SMALL
USER_CHARGES
@<TRIPOS>ATOM
1      C1     -0.0187    1.5258    0.0104 C.3      1 ZINC000013538280   -0.1500
2      C2      0.0021   -0.0041    0.0020 C.3      1 ZINC000013538280   -0.1300
3      C3     -1.4333   -0.5336    0.0129 C.3      1 ZINC000013538280    0.1700
4      H4     -1.9862   -0.1019   -0.8214 H        1 ZINC000013538280    0.1000
5      C5     -1.4157   -2.0577   -0.1212 C.3      1 ZINC000013538280    0.0600
6      O6     -0.5943   -2.6167    0.9058 O.3      1 ZINC000013538280   -0.5700
7      N7     -2.0815   -0.1618    1.2729 N.pl3    1 ZINC000013538280   -0.6800
8      C8     -3.4615   -0.0504    1.3358 C.ar     1 ZINC000013538280    0.6300
9      N9     -4.1750   -0.2901    0.2454 N.ar     1 ZINC000013538280   -0.6100
10     C10    -5.5029   -0.1948    0.2629 C.ar     1 ZINC000013538280    0.5100
11     N11    -6.2455   -0.4473   -0.8813 N.pl3    1 ZINC000013538280   -0.7100
12     C12    -5.5692   -0.8230   -2.1253 C.3      1 ZINC000013538280    0.1800
13     C13    -6.5942   -1.0400   -3.2086 C.ar     1 ZINC000013538280   -0.1200
14     C14    -7.1473   -2.2930   -3.3957 C.ar     1 ZINC000013538280   -0.1000
15     C15    -8.0875   -2.4921   -4.3894 C.ar     1 ZINC000013538280   -0.1200
16     C16    -8.4749   -1.4380   -5.1955 C.ar     1 ZINC000013538280   -0.1100
17     C17    -7.9225   -0.1849   -5.0077 C.ar     1 ZINC000013538280   -0.1200
18     C18    -6.9854    0.0152   -4.0113 C.ar     1 ZINC000013538280   -0.1000
19     C19    -6.1322    0.1632    1.4540 C.ar     1 ZINC000013538280   -0.1400
20     N20    -7.4597    0.3557    1.8371 N.am     1 ZINC000013538280   -0.6300
21     C21    -7.4718    0.7014    3.1397 C.2      1 ZINC000013538280    0.6900
22     O22    -8.4703    0.9422    3.7923 O.2      1 ZINC000013538280   -0.5500
23     N23    -6.2100    0.7389    3.6085 N.am     1 ZINC000013538280   -0.5100
24     C24    -5.8178    1.0741    4.9797 C.3      1 ZINC000013538280    0.1500
25     C25    -6.2917    2.4898    5.3141 C.3      1 ZINC000013538280   -0.1700
26     C26    -6.4573    0.0795    5.9506 C.3      1 ZINC000013538280   -0.1700
27     C27    -5.3460    0.4076    2.5807 C.ar     1 ZINC000013538280    0.4200
28     N28    -4.0260    0.2870    2.4854 N.ar     1 ZINC000013538280   -0.6000
29     H29     1.0039    1.9031    0.0027 H        1 ZINC000013538280    0.0600
30     H30    -0.5459    1.8868   -0.8726 H        1 ZINC000013538280    0.0500
31     H31    -0.5289    1.8773    0.9072 H        1 ZINC000013538280    0.0600
32     H32     0.5123   -0.3556   -0.8948 H        1 ZINC000013538280    0.0800
33     H33     0.5293   -0.3651    0.8851 H        1 ZINC000013538280    0.0800
34     H34    -2.4308   -2.4427   -0.0245 H        1 ZINC000013538280    0.0500
35     H35    -1.0145   -2.3319   -1.0969 H        1 ZINC000013538280    0.0500
36     H36    -0.5369   -3.5817    0.8819 H        1 ZINC000013538280    0.3800
37     H37    -1.5448    0.0065    2.0632 H        1 ZINC000013538280    0.4200
38     H38    -7.2125   -0.3750   -0.8577 H        1 ZINC000013538280    0.4100
39     H39    -4.8883   -0.0259   -2.4238 H        1 ZINC000013538280    0.0800
40     H40    -5.0055   -1.7428   -1.9690 H        1 ZINC000013538280    0.0800
41     H41    -6.8446   -3.1165   -2.7659 H        1 ZINC000013538280    0.1200
42     H42    -8.5191   -3.4711   -4.5361 H        1 ZINC000013538280    0.1200
43     H43    -9.2089   -1.5937   -5.9723 H        1 ZINC000013538280    0.1200
44     H44    -8.2249    0.6385   -5.6378 H        1 ZINC000013538280    0.1200
45     H45    -6.5538    0.9942   -3.8646 H        1 ZINC000013538280    0.1200
46     H46    -8.2376    0.2582    1.2660 H        1 ZINC000013538280    0.4300
47     H47    -4.7327    1.0233    5.0699 H        1 ZINC000013538280    0.1100
48     H48    -7.3768    2.5406    5.2239 H        1 ZINC000013538280    0.0700
49     H49    -5.9999    2.7392    6.3343 H        1 ZINC000013538280    0.0800
50     H50    -5.8361    3.1984    4.6224 H        1 ZINC000013538280    0.0600
51     H51    -6.1197   -0.9292    5.7123 H        1 ZINC000013538280    0.0600
52     H52    -6.1655    0.3288    6.9708 H        1 ZINC000013538280    0.0800
53     H53    -7.5424    0.1302    5.8604 H        1 ZINC000013538280    0.0700
@<TRIPOS>BOND
1     1     2     1
2     1     29    1
3     1     30    1
4     1     31    1
5     2     3     1
6     2     32    1
7     2     33    1
8     3     4     1
9     3     5     1
10    3     7     1
11    5     6     1
12    5     34    1
13    5     35    1
14    6     36    1
15    7     8     1
16    7     37    1
17    8     28    ar
18    8     9     ar
19    9     10    ar
20    10    11    1
21    10    19    ar
22    11    12    1
23    11    38    1
24    12    13    1
25    12    39    1
26    12    40    1
27    13    18    ar
28    13    14    ar
29    14    15    ar
30    14    41    1
31    15    16    ar
32    15    42    1
33    16    17    ar
34    16    43    1
35    17    18    ar
36    17    44    1
37    18    45    1
38    19    27    ar
39    19    20    1
40    20    21    am
41    20    46    1
42    21    22    2
43    21    23    am
44    23    24    1
45    23    27    1
46    24    25    1
47    24    26    1
48    24    47    1
49    25    48    1
50    25    49    1
51    25    50    1
52    26    51    1
53    26    52    1
54    26    53    1
55    27    28    ar
@<TRIPOS>SUBSTRUCTURE
1   ZINC000013538280 1     RESIDUE    1   A     ZIN   1
