@<TRIPOS>MOLECULE
ZINC000013471132
60    65    1     0     0
SMALL
USER_CHARGES
@<TRIPOS>ATOM
1      O1      0.0013   -0.0045    0.0045 O.2      1 ZINC000013471132   -0.5500
2      C2     -0.0147    1.2112    0.0150 C.2      1 ZINC000013471132    0.7200
3      N3      1.1436    1.9004    0.0183 N.am     1 ZINC000013471132   -0.6400
4      C4      2.3667    1.2156    0.0095 C.2      1 ZINC000013471132    0.3300
5      N5      3.5580    1.7655    0.0172 N.2      1 ZINC000013471132   -0.2700
6      N6      4.5124    0.7404    0.0038 N.pl3    1 ZINC000013471132   -0.4500
7      C7      3.8581   -0.4399   -0.0122 C.2      1 ZINC000013471132    0.0100
8      C8      4.4934   -1.8064   -0.0302 C.3      1 ZINC000013471132    0.0700
9      N9      4.8093   -2.2177    1.3441 N.4      1 ZINC000013471132   -0.5000
10     H10     5.4494   -1.5547    1.7549 H        1 ZINC000013471132    0.4300
11     H11     3.9610   -2.2484    1.8895 H        1 ZINC000013471132    0.4400
12     C12     5.4285   -3.5497    1.3265 C.3      1 ZINC000013471132    0.0200
13     H13     4.7962   -4.2621    0.7967 H        1 ZINC000013471132    0.1600
14     C14     6.8366   -3.4919    0.6970 C.3      1 ZINC000013471132   -0.0900
15     C15     7.6573   -4.5032    1.4684 C.ar     1 ZINC000013471132   -0.1100
16     C16     8.8663   -5.1022    1.1571 C.ar     1 ZINC000013471132   -0.0800
17     C17     9.4369   -6.0103    2.0275 C.ar     1 ZINC000013471132   -0.1000
18     C18     8.7990   -6.3231    3.2144 C.ar     1 ZINC000013471132   -0.0200
19     Cl19    9.5131   -7.4645    4.3103 Cl       1 ZINC000013471132   -0.0400
20     C20     7.5918   -5.7258    3.5264 C.ar     1 ZINC000013471132   -0.0900
21     C21     7.0192   -4.8155    2.6546 C.ar     1 ZINC000013471132   -0.0900
22     C22     5.7216   -4.0375    2.7612 C.3      1 ZINC000013471132   -0.0900
23     C23     2.5312   -0.1787   -0.0030 C.2      1 ZINC000013471132   -0.2000
24     N24    -1.1906    1.8697    0.0179 N.am     1 ZINC000013471132   -0.6700
25     C25    -2.3914    1.1580   -0.0860 C.ar     1 ZINC000013471132    0.1700
26     C26    -2.5097   -0.0975    0.5001 C.ar     1 ZINC000013471132   -0.0900
27     C27    -3.6958   -0.8009    0.4005 C.ar     1 ZINC000013471132   -0.1000
28     C28    -4.7682   -0.2664   -0.2841 C.ar     1 ZINC000013471132   -0.0500
29     C29    -4.6586    0.9876   -0.8846 C.ar     1 ZINC000013471132   -0.1300
30     C30    -3.4631    1.7045   -0.7662 C.ar     1 ZINC000013471132   -0.1000
31     C31    -3.6855    3.0074   -1.4812 C.3      1 ZINC000013471132    0.1300
32     H32    -3.7479    3.8403   -0.7808 H        1 ZINC000013471132    0.1100
33     C33    -2.6200    3.2594   -2.5606 C.3      1 ZINC000013471132   -0.1200
34     C34    -3.4072    3.8417   -3.7572 C.3      1 ZINC000013471132   -0.1400
35     C35    -4.8827    3.8575   -3.2909 C.3      1 ZINC000013471132    0.1400
36     N36    -4.9540    2.8289   -2.2312 N.am     1 ZINC000013471132   -0.6300
37     C37    -5.6075    1.8071   -1.6689 C.2      1 ZINC000013471132    0.5900
38     O38    -6.7932    1.5746   -1.8015 O.2      1 ZINC000013471132   -0.5100
39     H39     1.1308    2.8703    0.0267 H        1 ZINC000013471132    0.4200
40     H40     5.4753    0.8582    0.0057 H        1 ZINC000013471132    0.4500
41     H41     3.8019   -2.5227   -0.4740 H        1 ZINC000013471132    0.1600
42     H42     5.4098   -1.7733   -0.6194 H        1 ZINC000013471132    0.1500
43     H43     6.7913   -3.7664   -0.3569 H        1 ZINC000013471132    0.1100
44     H44     7.2611   -2.4944    0.8109 H        1 ZINC000013471132    0.1000
45     H45     9.3646   -4.8587    0.2305 H        1 ZINC000013471132    0.1400
46     H46    10.3798   -6.4759    1.7814 H        1 ZINC000013471132    0.1500
47     H47     7.0937   -5.9704    4.4530 H        1 ZINC000013471132    0.1400
48     H48     5.8447   -3.1866    3.4312 H        1 ZINC000013471132    0.1000
49     H49     4.9200   -4.6857    3.1153 H        1 ZINC000013471132    0.1100
50     H50     1.7387   -0.9124   -0.0114 H        1 ZINC000013471132    0.1900
51     H51    -1.2048    2.8367    0.0919 H        1 ZINC000013471132    0.4100
52     H52    -1.6732   -0.5241    1.0337 H        1 ZINC000013471132    0.1500
53     H53    -3.7834   -1.7741    0.8605 H        1 ZINC000013471132    0.1400
54     H54    -5.6930   -0.8197   -0.3551 H        1 ZINC000013471132    0.1400
55     H55    -1.8816    3.9782   -2.2054 H        1 ZINC000013471132    0.0800
56     H56    -2.1362    2.3243   -2.8428 H        1 ZINC000013471132    0.0800
57     H57    -3.0682    4.8540   -3.9777 H        1 ZINC000013471132    0.0900
58     H58    -3.2930    3.2033   -4.6332 H        1 ZINC000013471132    0.0800
59     H59    -5.1415    4.8324   -2.8778 H        1 ZINC000013471132    0.0800
60     H60    -5.5465    3.6044   -4.1176 H        1 ZINC000013471132    0.0900
@<TRIPOS>BOND
1     1     2     2
2     2     3     am
3     2     24    am
4     3     4     1
5     3     39    1
6     4     23    1
7     4     5     2
8     5     6     1
9     6     7     1
10    6     40    1
11    7     8     1
12    7     23    2
13    8     9     1
14    8     41    1
15    8     42    1
16    9     10    1
17    9     11    1
18    9     12    1
19    12    13    1
20    12    22    1
21    12    14    1
22    14    15    1
23    14    43    1
24    14    44    1
25    15    21    ar
26    15    16    ar
27    16    17    ar
28    16    45    1
29    17    18    ar
30    17    46    1
31    18    19    1
32    18    20    ar
33    20    21    ar
34    20    47    1
35    21    22    1
36    22    48    1
37    22    49    1
38    23    50    1
39    24    25    1
40    24    51    1
41    25    30    ar
42    25    26    ar
43    26    27    ar
44    26    52    1
45    27    28    ar
46    27    53    1
47    28    29    ar
48    28    54    1
49    29    37    1
50    29    30    ar
51    30    31    1
52    31    32    1
53    31    36    1
54    31    33    1
55    33    34    1
56    33    55    1
57    33    56    1
58    34    35    1
59    34    57    1
60    34    58    1
61    35    36    1
62    35    59    1
63    35    60    1
64    36    37    am
65    37    38    2
@<TRIPOS>SUBSTRUCTURE
1   ZINC000013471132 1     RESIDUE    1   A     ZIN   1
