@<TRIPOS>MOLECULE
ZINC000044460259
48    52    1     0     0
SMALL
USER_CHARGES
@<TRIPOS>ATOM
1      O1      0.0021   -0.0041    0.0020 O.co2    1 ZINC000044460259   -0.6900
2      C2     -0.0145    1.2218    0.0088 C.2      1 ZINC000044460259    0.5300
3      O3      1.0387    1.8491    0.0021 O.co2    1 ZINC000044460259   -0.6400
4      C4     -1.2478    1.9116    0.0184 C.2      1 ZINC000044460259    0.1100
5      C5     -1.4026    3.2949    0.0210 C.2      1 ZINC000044460259   -0.1100
6      C6     -0.3326    4.3001    0.0148 C.2      1 ZINC000044460259    0.1300
7      C7      0.2875    4.8665    1.1206 C.2      1 ZINC000044460259    0.0400
8      C8     -0.0072    4.5683    2.5406 C.ar     1 ZINC000044460259    0.0300
9      C9     -1.3125    4.2789    2.9393 C.ar     1 ZINC000044460259   -0.1100
10     C10    -1.5806    4.0014    4.2639 C.ar     1 ZINC000044460259   -0.1200
11     C11    -0.5583    4.0099    5.1961 C.ar     1 ZINC000044460259   -0.1300
12     C12     0.7382    4.2962    4.8071 C.ar     1 ZINC000044460259   -0.1300
13     C13     1.0201    4.5701    3.4846 C.ar     1 ZINC000044460259   -0.1000
14     N14     1.2054    5.7353    0.6628 N.2      1 ZINC000044460259   -0.4800
15     C15     1.1914    5.7411   -0.6418 C.2      1 ZINC000044460259    0.1700
16     N16     0.2643    4.8685   -1.0899 N.pl3    1 ZINC000044460259   -0.4400
17     C17    -0.0556    4.5856   -2.4912 C.3      1 ZINC000044460259    0.1500
18     C18    -1.2253    5.4333   -2.9205 C.ar     1 ZINC000044460259   -0.1000
19     C19    -2.5151    4.9604   -2.7656 C.ar     1 ZINC000044460259   -0.0700
20     C20    -3.5882    5.7375   -3.1591 C.ar     1 ZINC000044460259   -0.1100
21     C21    -3.3715    6.9888   -3.7080 C.ar     1 ZINC000044460259   -0.0300
22     Cl22   -4.7189    7.9656   -4.2020 Cl       1 ZINC000044460259   -0.0700
23     C23    -2.0805    7.4616   -3.8627 C.ar     1 ZINC000044460259   -0.1200
24     C24    -1.0083    6.6859   -3.4636 C.ar     1 ZINC000044460259   -0.0900
25     C25    -2.8500    3.5493    0.0308 C.ar     1 ZINC000044460259   -0.0900
26     C26    -3.6200    4.7142    0.0376 C.ar     1 ZINC000044460259   -0.0500
27     C27    -4.9832    4.6279    0.0468 C.ar     1 ZINC000044460259   -0.1400
28     C28    -5.6106    3.3881    0.0494 C.ar     1 ZINC000044460259   -0.0200
29     Cl29   -7.3445    3.3023    0.0611 Cl       1 ZINC000044460259   -0.0800
30     C30    -4.8698    2.2258    0.0423 C.ar     1 ZINC000044460259   -0.1200
31     C31    -3.4783    2.2907    0.0334 C.ar     1 ZINC000044460259    0.1000
32     N32    -2.5006    1.3229    0.0206 N.pl3    1 ZINC000044460259   -0.5600
33     H33    -2.1114    4.2723    2.2125 H        1 ZINC000044460259    0.1200
34     H34    -2.5907    3.7775    4.5738 H        1 ZINC000044460259    0.1200
35     H35    -0.7733    3.7924    6.2319 H        1 ZINC000044460259    0.1100
36     H36     1.5319    4.3012    5.5395 H        1 ZINC000044460259    0.1200
37     H37     2.0325    4.7934    3.1821 H        1 ZINC000044460259    0.1200
38     H38     1.8279    6.3486   -1.2681 H        1 ZINC000044460259    0.2000
39     H39     0.8082    4.8159   -3.1148 H        1 ZINC000044460259    0.1000
40     H40    -0.3115    3.5316   -2.5998 H        1 ZINC000044460259    0.1000
41     H41    -2.6841    3.9834   -2.3375 H        1 ZINC000044460259    0.1400
42     H42    -4.5958    5.3677   -3.0385 H        1 ZINC000044460259    0.1300
43     H43    -1.9107    8.4382   -4.2914 H        1 ZINC000044460259    0.1300
44     H44    -0.0005    7.0550   -3.5840 H        1 ZINC000044460259    0.1300
45     H45    -3.1388    5.6811    0.0359 H        1 ZINC000044460259    0.1200
46     H46    -5.5775    5.5296    0.0524 H        1 ZINC000044460259    0.1300
47     H47    -5.3670    1.2670    0.0437 H        1 ZINC000044460259    0.1300
48     H48    -2.6652    0.3670    0.0150 H        1 ZINC000044460259    0.4200
@<TRIPOS>BOND
1     1     2     ar
2     2     3     ar
3     2     4     1
4     4     32    1
5     4     5     2
6     5     6     1
7     5     25    1
8     6     16    1
9     6     7     2
10    7     8     1
11    7     14    1
12    8     13    ar
13    8     9     ar
14    9     10    ar
15    9     33    1
16    10    11    ar
17    10    34    1
18    11    12    ar
19    11    35    1
20    12    13    ar
21    12    36    1
22    13    37    1
23    14    15    2
24    15    16    1
25    15    38    1
26    16    17    1
27    17    18    1
28    17    39    1
29    17    40    1
30    18    24    ar
31    18    19    ar
32    19    20    ar
33    19    41    1
34    20    21    ar
35    20    42    1
36    21    22    1
37    21    23    ar
38    23    24    ar
39    23    43    1
40    24    44    1
41    25    31    ar
42    25    26    ar
43    26    27    ar
44    26    45    1
45    27    28    ar
46    27    46    1
47    28    29    1
48    28    30    ar
49    30    31    ar
50    30    47    1
51    31    32    1
52    32    48    1
@<TRIPOS>SUBSTRUCTURE
1   ZINC000044460259 1     RESIDUE    1   A     ZIN   1
