@<TRIPOS>MOLECULE
ZINC000011617031
73    81    1     0     0
SMALL
USER_CHARGES
@<TRIPOS>ATOM
1      C1      0.1110    0.7530   -0.9370 C.3      1 ZINC000011617031    0.0200
2      O2     -0.0464   -0.3435   -0.0342 O.3      1 ZINC000011617031   -0.3600
3      C3     -1.4079   -0.6870    0.2311 C.3      1 ZINC000011617031    0.0500
4      H4     -2.0632    0.0819   -0.1782 H        1 ZINC000011617031    0.0900
5      C5     -1.6236   -0.7893    1.7453 C.3      1 ZINC000011617031    0.1400
6      H6     -2.6609   -1.0521    1.9524 H        1 ZINC000011617031    0.1200
7      N7     -1.3019    0.4920    2.3785 N.am     1 ZINC000011617031   -0.6000
8      C8      0.0692    1.0061    2.3364 C.3      1 ZINC000011617031    0.0800
9      C9     -2.2675    1.1978    2.9999 C.2      1 ZINC000011617031    0.5600
10     O10    -3.3799    0.7247    3.1268 O.2      1 ZINC000011617031   -0.5200
11     C11    -1.9736    2.5474    3.5270 C.ar     1 ZINC000011617031   -0.1300
12     C12    -1.0287    3.3567    2.8942 C.ar     1 ZINC000011617031   -0.1000
13     C13    -0.7595    4.6152    3.3909 C.ar     1 ZINC000011617031   -0.1300
14     C14    -1.4234    5.0755    4.5142 C.ar     1 ZINC000011617031   -0.0900
15     C15    -2.3608    4.2782    5.1465 C.ar     1 ZINC000011617031   -0.1300
16     C16    -2.6439    3.0201    4.6563 C.ar     1 ZINC000011617031   -0.0600
17     C17    -0.6948   -1.8825    2.2856 C.3      1 ZINC000011617031   -0.1700
18     C18    -1.0255   -3.2076    1.6104 C.3      1 ZINC000011617031    0.3300
19     H19    -0.2181   -3.8996    1.8499 H        1 ZINC000011617031    0.1300
20     O20    -1.0780   -3.1006    0.2057 O.3      1 ZINC000011617031   -0.3400
21     C21    -1.7297   -2.0272   -0.4181 C.3      1 ZINC000011617031    0.3400
22     C22    -1.2296   -1.9752   -1.8632 C.3      1 ZINC000011617031   -0.1600
23     N23    -3.1797   -2.2149   -0.4842 N.pl3    1 ZINC000011617031   -0.5100
24     C24    -4.0173   -1.7370   -1.4639 C.ar     1 ZINC000011617031    0.1500
25     C25    -5.3402   -2.1308   -1.1639 C.ar     1 ZINC000011617031   -0.0900
26     C26    -6.4092   -1.7850   -1.9900 C.ar     1 ZINC000011617031   -0.0500
27     C27    -6.1107   -1.0389   -3.1183 C.ar     1 ZINC000011617031   -0.1500
28     C28    -4.8156   -0.6529   -3.4152 C.ar     1 ZINC000011617031   -0.0800
29     C29    -3.7424   -0.9857   -2.6058 C.ar     1 ZINC000011617031   -0.1500
30     C30    -5.2776   -2.8987    0.0810 C.ar     1 ZINC000011617031   -0.0600
31     C31    -3.9235   -2.9205    0.4497 C.ar     1 ZINC000011617031    0.1500
32     C32    -3.5253   -3.5930    1.6109 C.ar     1 ZINC000011617031    0.1100
33     C33    -4.4741   -4.2407    2.4043 C.ar     1 ZINC000011617031    0.0000
34     C34    -3.7352   -4.8359    3.5139 C.ar     1 ZINC000011617031   -0.1100
35     C35    -4.1507   -5.6000    4.6058 C.ar     1 ZINC000011617031   -0.0300
36     C36    -3.1674   -6.0128    5.4889 C.ar     1 ZINC000011617031   -0.1600
37     C37    -1.8357   -5.6856    5.3031 C.ar     1 ZINC000011617031   -0.0700
38     C38    -1.4041   -4.9290    4.2265 C.ar     1 ZINC000011617031   -0.1600
39     C39    -2.3743   -4.5009    3.3215 C.ar     1 ZINC000011617031    0.1600
40     N40    -2.2562   -3.7752    2.1627 N.pl3    1 ZINC000011617031   -0.5200
41     C41    -5.8391   -4.2089    2.0337 C.ar     1 ZINC000011617031   -0.1300
42     C42    -6.2224   -3.5387    0.8770 C.ar     1 ZINC000011617031   -0.0400
43     C43    -7.7200   -3.6913    0.7708 C.3      1 ZINC000011617031    0.1400
44     N44    -8.1333   -4.4829    1.9350 N.am     1 ZINC000011617031   -0.7200
45     C45    -7.0416   -4.7798    2.6600 C.2      1 ZINC000011617031    0.5700
46     O46    -7.0469   -5.4284    3.6888 O.2      1 ZINC000011617031   -0.5200
47     H47     1.1716    0.9723   -1.0608 H        1 ZINC000011617031    0.1000
48     H48    -0.3214    0.4930   -1.9032 H        1 ZINC000011617031    0.0500
49     H49    -0.3969    1.6299   -0.5357 H        1 ZINC000011617031    0.0500
50     H50     0.1923    1.6413    1.4592 H        1 ZINC000011617031    0.0600
51     H51     0.2670    1.5878    3.2368 H        1 ZINC000011617031    0.0800
52     H52     0.7686    0.1718    2.2820 H        1 ZINC000011617031    0.0800
53     H53    -0.5093    2.9982    2.0178 H        1 ZINC000011617031    0.1400
54     H54    -0.0286    5.2424    2.9022 H        1 ZINC000011617031    0.1300
55     H55    -1.2087    6.0614    4.8992 H        1 ZINC000011617031    0.1300
56     H56    -2.8754    4.6433    6.0231 H        1 ZINC000011617031    0.1300
57     H57    -3.3761    2.3988    5.1506 H        1 ZINC000011617031    0.1300
58     H58     0.3410   -1.6160    2.0755 H        1 ZINC000011617031    0.1100
59     H59    -0.8343   -1.9785    3.3624 H        1 ZINC000011617031    0.1000
60     H60    -1.8019   -2.6760   -2.4711 H        1 ZINC000011617031    0.0800
61     H61    -1.3564   -0.9662   -2.2555 H        1 ZINC000011617031    0.0900
62     H62    -0.1743   -2.2465   -1.8925 H        1 ZINC000011617031    0.1000
63     H63    -7.4213   -2.0849   -1.7613 H        1 ZINC000011617031    0.1400
64     H64    -6.9105   -0.7509   -3.7844 H        1 ZINC000011617031    0.1300
65     H65    -4.6357   -0.0725   -4.3081 H        1 ZINC000011617031    0.1300
66     H66    -2.7363   -0.6771   -2.8487 H        1 ZINC000011617031    0.1400
67     H67    -5.1891   -5.8565    4.7547 H        1 ZINC000011617031    0.1500
68     H68    -3.4475   -6.6062    6.3467 H        1 ZINC000011617031    0.1200
69     H69    -1.1082   -6.0325    6.0219 H        1 ZINC000011617031    0.1300
70     H70    -0.3614   -4.6807    4.0941 H        1 ZINC000011617031    0.1300
71     H71    -8.1992   -2.7126    0.7937 H        1 ZINC000011617031    0.1000
72     H72    -7.9792   -4.2148   -0.1495 H        1 ZINC000011617031    0.1000
73     H73    -9.0424   -4.7472    2.1462 H        1 ZINC000011617031    0.4300
@<TRIPOS>BOND
1     1     2     1
2     1     47    1
3     1     48    1
4     1     49    1
5     2     3     1
6     3     4     1
7     3     21    1
8     3     5     1
9     5     6     1
10    5     7     1
11    5     17    1
12    7     8     1
13    7     9     am
14    8     50    1
15    8     51    1
16    8     52    1
17    9     10    2
18    9     11    1
19    11    16    ar
20    11    12    ar
21    12    13    ar
22    12    53    1
23    13    14    ar
24    13    54    1
25    14    15    ar
26    14    55    1
27    15    16    ar
28    15    56    1
29    16    57    1
30    17    18    1
31    17    58    1
32    17    59    1
33    18    19    1
34    18    40    1
35    18    20    1
36    20    21    1
37    21    22    1
38    21    23    1
39    22    60    1
40    22    61    1
41    22    62    1
42    23    31    1
43    23    24    1
44    24    29    ar
45    24    25    ar
46    25    26    ar
47    25    30    1
48    26    27    ar
49    26    63    1
50    27    28    ar
51    27    64    1
52    28    29    ar
53    28    65    1
54    29    66    1
55    30    42    ar
56    30    31    ar
57    31    32    ar
58    32    40    1
59    32    33    ar
60    33    34    1
61    33    41    ar
62    34    39    ar
63    34    35    ar
64    35    36    ar
65    35    67    1
66    36    37    ar
67    36    68    1
68    37    38    ar
69    37    69    1
70    38    39    ar
71    38    70    1
72    39    40    1
73    41    45    1
74    41    42    ar
75    42    43    1
76    43    44    1
77    43    71    1
78    43    72    1
79    44    45    am
80    44    73    1
81    45    46    2
@<TRIPOS>SUBSTRUCTURE
1   ZINC000011617031 1     RESIDUE    1   A     ZIN   1
