@<TRIPOS>MOLECULE
ZINC000045337387
  29   30    0    0    0
SMALL
USER_CHARGES
NO_NAME
@<TRIPOS>ATOM
    1 C1       -0.0176     1.4478     0.0100 C.3    1 <0>       0.0600
    2 O2        0.0021    -0.0041     0.0020 O.3    1 <0>      -0.3700
    3 C3        0.6002    -0.6015    -1.0459 C.2    1 <0>       0.6500
    4 O4        1.0922     0.0719    -1.9296 O.2    1 <0>      -0.5700
    5 N5        0.6531    -1.9465    -1.1147 N.am   1 <0>      -0.7100
    6 C6        1.3039    -2.5965    -2.2549 C.3    1 <0>       0.1400
    7 C7        1.2259    -4.1155    -2.0887 C.3    1 <0>      -0.0700
    8 C8        1.8954    -4.7842    -3.2616 C.2    1 <0>       0.1300
    9 C9        3.2195    -5.0542    -3.3945 C.2    1 <0>      -0.2700
   10 C10       3.3399    -5.7106    -4.7193 C.2    1 <0>       0.0000
   11 N11       2.1420    -5.7592    -5.2077 N.2    1 <0>      -0.1900
   12 N12       1.2926    -5.2387    -4.3872 N.pl3  1 <0>      -0.3900
   13 C13       4.6687    -6.1459    -5.1944 C.2    1 <0>       0.4800
   14 O14       4.8454    -6.5282    -6.3347 O.2    1 <0>      -0.3800
   15 C15       5.7771    -6.0926    -4.2098 C.2    1 <0>      -0.0600
   16 Cl16      7.2917    -6.8318    -4.6259 Cl     1 <0>      -0.0100
   17 C17       5.6619    -5.4997    -3.0152 C.2    1 <0>      -0.1200
   18 C18       4.4140    -4.8410    -2.5642 C.2    1 <0>       0.4700
   19 O19       4.3794    -4.1580    -1.5584 O.2    1 <0>      -0.4100
   20 H20       1.0050     1.8251     0.0023 H      1 <0>       0.0700
   21 H21      -0.5448     1.8089    -0.8731 H      1 <0>       0.0600
   22 H22      -0.5278     1.7993     0.9068 H      1 <0>       0.1100
   23 H23       0.2603    -2.4840    -0.4093 H      1 <0>       0.4100
   24 H24       0.7989    -2.3054    -3.1760 H      1 <0>       0.0800
   25 H25       2.3487    -2.2892    -2.3006 H      1 <0>       0.0800
   26 H26       1.7309    -4.4066    -1.1677 H      1 <0>       0.1200
   27 H27       0.1811    -4.4228    -2.0430 H      1 <0>       0.1000
   28 H28       0.3399    -5.1743    -4.5582 H      1 <0>       0.4600
   29 H29       6.5144    -5.5022    -2.3521 H      1 <0>       0.1700
@<TRIPOS>BOND
   1    1    2 1
   2    1   20 1
   3    1   21 1
   4    1   22 1
   5    2    3 1
   6    3    4 2
   7    3    5 am
   8    5    6 1
   9    5   23 1
  10    6    7 1
  11    6   24 1
  12    6   25 1
  13    7    8 1
  14    7   26 1
  15    7   27 1
  16    8   12 1
  17    8    9 2
  18    9   18 1
  19    9   10 1
  20   10   11 2
  21   10   13 1
  22   11   12 1
  23   12   28 1
  24   13   14 2
  25   13   15 1
  26   15   16 1
  27   15   17 2
  28   17   18 1
  29   17   29 1
  30   18   19 2
