@<TRIPOS>MOLECULE
ZINC000014974774
  40   43    0    0    0
SMALL
USER_CHARGES
NO_NAME
@<TRIPOS>ATOM
    1 O1        0.0021    -0.0041     0.0020 O.2    1 <0>      -0.4900
    2 C2       -0.0144     1.2140     0.0087 C.2    1 <0>       0.5400
    3 N3       -1.1926     1.8620     0.0290 N.am   1 <0>      -0.6300
    4 C4       -1.2510     3.2402     0.0376 C.ar   1 <0>       0.1900
    5 C5       -2.4802     3.8923     0.0592 C.ar   1 <0>      -0.1700
    6 C6       -2.5263     5.2699     0.0680 C.ar   1 <0>      -0.0600
    7 C7       -1.3571     6.0175     0.0551 C.ar   1 <0>      -0.1500
    8 C8       -0.1388     5.4004     0.0340 C.ar   1 <0>      -0.0500
    9 C9       -0.0670     4.0016     0.0251 C.ar   1 <0>      -0.1300
   10 C10       1.2273     3.3223     0.0025 C.2    1 <0>      -0.0100
   11 C11       1.2499     1.9549     0.0006 C.2    1 <0>      -0.1100
   12 C12       2.5412     1.2289    -0.0215 C.2    1 <0>       0.1200
   13 C13       3.7364     1.8557    -0.0347 C.2    1 <0>      -0.2400
   14 S14       4.9938     0.6220    -0.0581 S.3    1 <0>       0.1800
   15 C15       3.8065    -0.6073    -0.0480 C.2    1 <0>       0.0200
   16 C16       4.1005    -2.0853    -0.0594 C.3    1 <0>      -0.5300
   17 S17       4.1943    -2.6700    -1.7740 S.o2   1 <0>       2.5000
   18 O18       2.9145    -2.6179    -2.3894 O.2    1 <0>      -0.9100
   19 O19       5.3407    -2.1350    -2.4212 O.2    1 <0>      -0.9200
   20 C20       4.5389    -4.3922    -1.6331 C.ar   1 <0>      -0.6600
   21 C21       5.8481    -4.8336    -1.5875 C.ar   1 <0>      -0.0200
   22 C22       6.1185    -6.1848    -1.4769 C.ar   1 <0>      -0.1400
   23 C23       5.0796    -7.0944    -1.4115 C.ar   1 <0>      -0.0600
   24 C24       3.7705    -6.6529    -1.4561 C.ar   1 <0>      -0.1400
   25 C25       3.5001    -5.3014    -1.5624 C.ar   1 <0>      -0.0200
   26 N26       2.6254    -0.0941    -0.0244 N.2    1 <0>      -0.4100
   27 H27      -2.0169     1.3507     0.0375 H      1 <0>       0.4200
   28 H28      -3.3961     3.3202     0.0687 H      1 <0>       0.1400
   29 H29      -3.4821     5.7727     0.0848 H      1 <0>       0.1300
   30 H30      -1.4109     7.0962     0.0616 H      1 <0>       0.1300
   31 H31       0.7665     5.9892     0.0244 H      1 <0>       0.1400
   32 H32       2.1468     3.8886    -0.0080 H      1 <0>       0.1500
   33 H33       3.8940     2.9242    -0.0318 H      1 <0>       0.1900
   34 H34       5.0514    -2.2705     0.4402 H      1 <0>       0.1600
   35 H35       3.3058    -2.6179     0.4631 H      1 <0>       0.1700
   36 H36       6.6597    -4.1230    -1.6386 H      1 <0>       0.1400
   37 H37       7.1413    -6.5297    -1.4420 H      1 <0>       0.1400
   38 H38       5.2909    -8.1501    -1.3258 H      1 <0>       0.1300
   39 H39       2.9588    -7.3636    -1.4054 H      1 <0>       0.1400
   40 H40       2.4772    -4.9564    -1.5973 H      1 <0>       0.1400
@<TRIPOS>BOND
   1    1    2 2
   2    2   11 1
   3    2    3 am
   4    3    4 1
   5    3   27 1
   6    4    9 ar
   7    4    5 ar
   8    5    6 ar
   9    5   28 1
  10    6    7 ar
  11    6   29 1
  12    7    8 ar
  13    7   30 1
  14    8    9 ar
  15    8   31 1
  16    9   10 1
  17   10   11 2
  18   10   32 1
  19   11   12 1
  20   12   26 1
  21   12   13 2
  22   13   14 1
  23   13   33 1
  24   14   15 1
  25   15   16 1
  26   15   26 2
  27   16   17 1
  28   16   34 1
  29   16   35 1
  30   17   18 2
  31   17   19 2
  32   17   20 1
  33   20   25 ar
  34   20   21 ar
  35   21   22 ar
  36   21   36 1
  37   22   23 ar
  38   22   37 1
  39   23   24 ar
  40   23   38 1
  41   24   25 ar
  42   24   39 1
  43   25   40 1
