@<TRIPOS>MOLECULE
ZINC000014976048
85    88    1     0     0
SMALL
USER_CHARGES
@<TRIPOS>ATOM
1      C1      1.2850   -0.4870   -2.0972 C.3      1 ZINC000014976048   -0.0500
2      N2      0.7411   -1.7083   -1.4884 N.4      1 ZINC000014976048   -0.3900
3      H3      0.7742   -2.4618   -2.1587 H        1 ZINC000014976048    0.4300
4      C4      1.5412   -2.0661   -0.3096 C.3      1 ZINC000014976048   -0.0500
5      C5     -0.6513   -1.4749   -1.0827 C.3      1 ZINC000014976048   -0.0100
6      C6     -1.2570   -2.7804   -0.5634 C.3      1 ZINC000014976048   -0.1600
7      C7     -2.6687   -2.5140   -0.0373 C.3      1 ZINC000014976048    0.1600
8      H8     -2.6345   -1.7207    0.7095 H        1 ZINC000014976048    0.1200
9      C9     -3.2251   -3.7894    0.5987 C.3      1 ZINC000014976048   -0.1300
10     S10    -4.8990   -3.4735    1.2225 S.3      1 ZINC000014976048   -0.0800
11     C11    -5.3669   -5.0282    1.9070 C.ar     1 ZINC000014976048   -0.0900
12     C12    -4.4845   -6.1012    1.8661 C.ar     1 ZINC000014976048   -0.1400
13     C13    -4.8547   -7.3181    2.4035 C.ar     1 ZINC000014976048   -0.1000
14     C14    -6.1017   -7.4699    2.9820 C.ar     1 ZINC000014976048   -0.1200
15     C15    -6.9826   -6.4045    3.0240 C.ar     1 ZINC000014976048   -0.1000
16     C16    -6.6170   -5.1829    2.4942 C.ar     1 ZINC000014976048   -0.1000
17     N17    -3.5338   -2.1037   -1.1462 N.pl3    1 ZINC000014976048   -0.7200
18     C18    -4.0748   -0.8163   -1.1705 C.ar     1 ZINC000014976048    0.3000
19     C19    -3.9053    0.0305   -0.0827 C.ar     1 ZINC000014976048   -0.2300
20     C20    -4.4413    1.3033   -0.1102 C.ar     1 ZINC000014976048    0.0800
21     C21    -5.1458    1.7346   -1.2189 C.ar     1 ZINC000014976048   -0.6600
22     S22    -5.8274    3.3591   -1.2501 S.o2     1 ZINC000014976048    2.6400
23     O23    -6.9001    3.3265   -2.1814 O.2      1 ZINC000014976048   -1.0100
24     O24    -5.9870    3.7534    0.1058 O.2      1 ZINC000014976048   -1.0100
25     N25    -4.6776    4.3608   -1.8960 N.pl3    1 ZINC000014976048   -1.1100
26     C26    -4.9335    5.6762   -2.0393 C.2      1 ZINC000014976048    0.5700
27     O27    -6.0086    6.1276   -1.6944 O.2      1 ZINC000014976048   -0.6200
28     C28    -3.9093    6.5685   -2.6147 C.ar     1 ZINC000014976048   -0.1100
29     C29    -2.6750    6.0501   -3.0171 C.ar     1 ZINC000014976048   -0.0400
30     C30    -1.7218    6.8849   -3.5540 C.ar     1 ZINC000014976048   -0.1600
31     C31    -1.9857    8.2444   -3.6965 C.ar     1 ZINC000014976048    0.1200
32     N32    -1.0206    9.0853   -4.2397 N.3      1 ZINC000014976048   -0.4900
33     C33     0.2393    8.9932   -3.4910 C.3      1 ZINC000014976048    0.0600
34     C34     1.3168    9.8168   -4.2000 C.3      1 ZINC000014976048   -0.1100
35     C35     0.8605   11.2756   -4.2901 C.3      1 ZINC000014976048   -0.0700
36     C36     0.6911   11.8464   -2.8807 C.3      1 ZINC000014976048   -0.1500
37     C37     1.9071   12.0927   -5.0503 C.3      1 ZINC000014976048   -0.1400
38     C38    -0.4775   11.3387   -5.0319 C.3      1 ZINC000014976048   -0.1100
39     C39    -1.5031   10.4710   -4.2989 C.3      1 ZINC000014976048    0.0500
40     C40    -3.2140    8.7637   -3.2967 C.ar     1 ZINC000014976048   -0.1900
41     C41    -4.1732    7.9332   -2.7641 C.ar     1 ZINC000014976048   -0.0500
42     C42    -5.3165    0.8939   -2.3038 C.ar     1 ZINC000014976048    0.0900
43     C43    -4.7788   -0.3778   -2.2851 C.ar     1 ZINC000014976048   -0.1300
44     N44    -4.9619   -1.2768   -3.4465 N.pl3    1 ZINC000014976048    0.0500
45     O45    -5.4901   -0.8601   -4.4618 O.2      1 ZINC000014976048   -0.1400
46     O46    -4.5843   -2.4333   -3.3869 O.2      1 ZINC000014976048   -0.2100
47     H47     2.3182   -0.6603   -2.3983 H        1 ZINC000014976048    0.1300
48     H48     0.6913   -0.2216   -2.9719 H        1 ZINC000014976048    0.1200
49     H49     1.2492    0.3269   -1.3731 H        1 ZINC000014976048    0.1200
50     H50     1.5054   -1.2521    0.4145 H        1 ZINC000014976048    0.1200
51     H51     1.1376   -2.9722    0.1421 H        1 ZINC000014976048    0.1200
52     H52     2.5744   -2.2393   -0.6107 H        1 ZINC000014976048    0.1200
53     H53    -0.6788   -0.7227   -0.2942 H        1 ZINC000014976048    0.1400
54     H54    -1.2256   -1.1236   -1.9400 H        1 ZINC000014976048    0.1300
55     H55    -1.3026   -3.5075   -1.3742 H        1 ZINC000014976048    0.1000
56     H56    -0.6370   -3.1733    0.2425 H        1 ZINC000014976048    0.1000
57     H57    -3.2594   -4.5827   -0.1481 H        1 ZINC000014976048    0.1000
58     H58    -2.5815   -4.0947    1.4238 H        1 ZINC000014976048    0.1000
59     H59    -3.5107   -5.9834    1.4143 H        1 ZINC000014976048    0.1200
60     H60    -4.1696   -8.1524    2.3718 H        1 ZINC000014976048    0.1300
61     H61    -6.3885   -8.4229    3.4015 H        1 ZINC000014976048    0.1300
62     H62    -7.9557   -6.5268    3.4762 H        1 ZINC000014976048    0.1300
63     H63    -7.3052   -4.3513    2.5276 H        1 ZINC000014976048    0.1300
64     H64    -3.7308   -2.7262   -1.8635 H        1 ZINC000014976048    0.4200
65     H65    -3.3554   -0.3059    0.7838 H        1 ZINC000014976048    0.1500
66     H66    -4.3102    1.9622    0.7354 H        1 ZINC000014976048    0.1600
67     H67    -2.4695    4.9956   -2.9065 H        1 ZINC000014976048    0.1400
68     H68    -0.7679    6.4851   -3.8647 H        1 ZINC000014976048    0.1200
69     H69     0.0916    9.3796   -2.4826 H        1 ZINC000014976048    0.0500
70     H70     0.5548    7.9512   -3.4379 H        1 ZINC000014976048    0.0800
71     H71     2.2477    9.7609   -3.6356 H        1 ZINC000014976048    0.0700
72     H72     1.4749    9.4223   -5.2037 H        1 ZINC000014976048    0.0700
73     H73     1.6427   11.7959   -2.3515 H        1 ZINC000014976048    0.0500
74     H74     0.3662   12.8848   -2.9459 H        1 ZINC000014976048    0.0600
75     H75    -0.0563   11.2651   -2.3407 H        1 ZINC000014976048    0.0600
76     H76     2.0254   11.6868   -6.0549 H        1 ZINC000014976048    0.0600
77     H77     1.5814   13.1310   -5.1140 H        1 ZINC000014976048    0.0500
78     H78     2.8600   12.0425   -4.5235 H        1 ZINC000014976048    0.0500
79     H79    -0.8287   12.3701   -5.0620 H        1 ZINC000014976048    0.0700
80     H80    -0.3477   10.9681   -6.0488 H        1 ZINC000014976048    0.0700
81     H81    -2.4530   10.5023   -4.8325 H        1 ZINC000014976048    0.0800
82     H82    -1.6426   10.8505   -3.2867 H        1 ZINC000014976048    0.0500
83     H83    -3.4157    9.8188   -3.4085 H        1 ZINC000014976048    0.1200
84     H84    -5.1260    8.3365   -2.4544 H        1 ZINC000014976048    0.1300
85     H85    -5.8673    1.2339   -3.1683 H        1 ZINC000014976048    0.1700
@<TRIPOS>BOND
1     1     2     1
2     1     47    1
3     1     48    1
4     1     49    1
5     2     3     1
6     2     4     1
7     2     5     1
8     4     50    1
9     4     51    1
10    4     52    1
11    5     6     1
12    5     53    1
13    5     54    1
14    6     7     1
15    6     55    1
16    6     56    1
17    7     8     1
18    7     9     1
19    7     17    1
20    9     10    1
21    9     57    1
22    9     58    1
23    10    11    1
24    11    16    ar
25    11    12    ar
26    12    13    ar
27    12    59    1
28    13    14    ar
29    13    60    1
30    14    15    ar
31    14    61    1
32    15    16    ar
33    15    62    1
34    16    63    1
35    17    18    1
36    17    64    1
37    18    43    ar
38    18    19    ar
39    19    20    ar
40    19    65    1
41    20    21    ar
42    20    66    1
43    21    22    1
44    21    42    ar
45    22    23    2
46    22    24    2
47    22    25    1
48    25    26    1
49    26    27    2
50    26    28    1
51    28    41    ar
52    28    29    ar
53    29    30    ar
54    29    67    1
55    30    31    ar
56    30    68    1
57    31    32    1
58    31    40    ar
59    32    39    1
60    32    33    1
61    33    34    1
62    33    69    1
63    33    70    1
64    34    35    1
65    34    71    1
66    34    72    1
67    35    36    1
68    35    37    1
69    35    38    1
70    36    73    1
71    36    74    1
72    36    75    1
73    37    76    1
74    37    77    1
75    37    78    1
76    38    39    1
77    38    79    1
78    38    80    1
79    39    81    1
80    39    82    1
81    40    41    ar
82    40    83    1
83    41    84    1
84    42    43    ar
85    42    85    1
86    43    44    1
87    44    45    2
88    44    46    2
@<TRIPOS>SUBSTRUCTURE
1   ZINC000014976048 1     RESIDUE    1   A     ZIN   1
