@<TRIPOS>MOLECULE
ZINC000027563840
86    89    1     0     0
SMALL
USER_CHARGES
@<TRIPOS>ATOM
1      C1      3.2909    1.7014   -1.1102 C.3      1 ZINC000027563840    0.0200
2      O2      4.6638    1.3079   -1.0608 O.3      1 ZINC000027563840   -0.3000
3      C3      5.1152    0.7882    0.1121 C.ar     1 ZINC000027563840    0.1400
4      C4      4.2554    0.6562    1.1839 C.ar     1 ZINC000027563840   -0.1700
5      C5      4.7213    0.1203    2.3916 C.ar     1 ZINC000027563840   -0.1000
6      C6      3.8083   -0.0223    3.5355 C.2      1 ZINC000027563840    0.4000
7      O7      2.6766    0.4125    3.4670 O.2      1 ZINC000027563840   -0.4100
8      C8      4.2725   -0.7014    4.7806 C.2      1 ZINC000027563840    0.4900
9      O9      4.2117   -1.9102    4.8713 O.2      1 ZINC000027563840   -0.4600
10     N10     4.7593    0.0276    5.8044 N.am     1 ZINC000027563840   -0.5900
11     C11     4.7286    1.4958    5.7590 C.3      1 ZINC000027563840    0.1100
12     C12     6.1427    2.0266    6.0147 C.3      1 ZINC000027563840   -0.1400
13     C13     6.6698    1.4493    7.3304 C.3      1 ZINC000027563840   -0.1200
14     C14     6.7375   -0.0762    7.2292 C.3      1 ZINC000027563840   -0.1200
15     C15     5.3251   -0.6309    6.9897 C.3      1 ZINC000027563840    0.1500
16     H16     4.7006   -0.4284    7.8599 H        1 ZINC000027563840    0.1100
17     C17     5.3992   -2.1179    6.7561 C.2      1 ZINC000027563840    0.4700
18     O18     5.8410   -2.5447    5.7157 O.2      1 ZINC000027563840   -0.4600
19     O19     4.9743   -2.9681    7.7039 O.3      1 ZINC000027563840   -0.3500
20     C20     5.0635   -4.3863    7.4052 C.3      1 ZINC000027563840    0.0900
21     H21     5.4787   -4.5218    6.4065 H        1 ZINC000027563840    0.1000
22     C22     5.9708   -5.0676    8.4316 C.3      1 ZINC000027563840   -0.1300
23     C23     7.3969   -4.5328    8.2861 C.3      1 ZINC000027563840   -0.1100
24     C24     8.3043   -5.2142    9.3125 C.3      1 ZINC000027563840   -0.0800
25     C25     9.7089   -4.6875    9.1691 C.ar     1 ZINC000027563840   -0.0800
26     C26    10.5954   -5.3081    8.3090 C.ar     1 ZINC000027563840   -0.1200
27     C27    11.8839   -4.8249    8.1775 C.ar     1 ZINC000027563840   -0.1200
28     C28    12.2858   -3.7209    8.9059 C.ar     1 ZINC000027563840   -0.1300
29     C29    11.3990   -3.0998    9.7654 C.ar     1 ZINC000027563840   -0.1200
30     C30    10.1092   -3.5803    9.8936 C.ar     1 ZINC000027563840   -0.1200
31     C31     3.6673   -5.0090    7.4659 C.3      1 ZINC000027563840   -0.1200
32     C32     2.7970   -4.4192    6.3542 C.3      1 ZINC000027563840   -0.1100
33     C33     1.4105   -5.0647    6.3953 C.3      1 ZINC000027563840   -0.0800
34     C34     0.5931   -4.5738    5.2282 C.ar     1 ZINC000027563840   -0.1300
35     C35    -0.1108   -3.3827    5.3159 C.ar     1 ZINC000027563840   -0.0700
36     C36    -0.8490   -2.9699    4.2170 C.ar     1 ZINC000027563840   -0.1700
37     C37    -0.8585   -3.7539    3.0791 C.ar     1 ZINC000027563840    0.0900
38     N38    -0.1765   -4.8818    3.0313 N.ar     1 ZINC000027563840   -0.4800
39     C39     0.5403   -5.3025    4.0549 C.ar     1 ZINC000027563840    0.1000
40     C40     6.0590   -0.2798    2.5068 C.ar     1 ZINC000027563840   -0.1700
41     C41     6.9131   -0.1449    1.4307 C.ar     1 ZINC000027563840    0.1400
42     O42     8.2116   -0.5334    1.5415 O.3      1 ZINC000027563840   -0.3000
43     C43     8.5937   -1.1808    2.7567 C.3      1 ZINC000027563840    0.0200
44     C44     6.4446    0.3840    0.2286 C.ar     1 ZINC000027563840    0.0700
45     O45     7.2875    0.5150   -0.8279 O.3      1 ZINC000027563840   -0.3100
46     C46     7.3788   -0.5927   -1.7262 C.3      1 ZINC000027563840    0.0400
47     H47     3.1058    2.4693   -0.3591 H        1 ZINC000027563840    0.0600
48     H48     3.0620    2.0980   -2.0993 H        1 ZINC000027563840    0.1100
49     H49     2.6578    0.8371   -0.9099 H        1 ZINC000027563840    0.0600
50     H50     3.2249    0.9661    1.0917 H        1 ZINC000027563840    0.1500
51     H51     4.3871    1.8240    4.7773 H        1 ZINC000027563840    0.0800
52     H52     4.0529    1.8711    6.5275 H        1 ZINC000027563840    0.0900
53     H53     6.7977    1.7256    5.1971 H        1 ZINC000027563840    0.0700
54     H54     6.1168    3.1144    6.0792 H        1 ZINC000027563840    0.0900
55     H55     7.6663    1.8448    7.5271 H        1 ZINC000027563840    0.0800
56     H56     6.0009    1.7300    8.1440 H        1 ZINC000027563840    0.0700
57     H57     7.3869   -0.3574    6.4002 H        1 ZINC000027563840    0.0800
58     H58     7.1350   -0.4851    8.1582 H        1 ZINC000027563840    0.0900
59     H59     5.6047   -4.8573    9.4365 H        1 ZINC000027563840    0.0800
60     H60     5.9674   -6.1442    8.2616 H        1 ZINC000027563840    0.0800
61     H61     7.7631   -4.7432    7.2812 H        1 ZINC000027563840    0.0600
62     H62     7.4004   -3.4562    8.4561 H        1 ZINC000027563840    0.0600
63     H63     7.9381   -5.0038   10.3173 H        1 ZINC000027563840    0.0700
64     H64     8.3008   -6.2908    9.1424 H        1 ZINC000027563840    0.0700
65     H65    10.2814   -6.1706    7.7399 H        1 ZINC000027563840    0.1200
66     H66    12.5767   -5.3102    7.5060 H        1 ZINC000027563840    0.1200
67     H67    13.2926   -3.3439    8.8037 H        1 ZINC000027563840    0.1200
68     H68    11.7131   -2.2374   10.3347 H        1 ZINC000027563840    0.1200
69     H69     9.4164   -3.0950   10.5651 H        1 ZINC000027563840    0.1200
70     H70     3.7446   -6.0881    7.3328 H        1 ZINC000027563840    0.0800
71     H71     3.2152   -4.7938    8.4340 H        1 ZINC000027563840    0.0700
72     H72     2.7014   -3.3432    6.4999 H        1 ZINC000027563840    0.0600
73     H73     3.2605   -4.6151    5.3873 H        1 ZINC000027563840    0.0700
74     H74     1.5123   -6.1484    6.3373 H        1 ZINC000027563840    0.0800
75     H75     0.9120   -4.7959    7.3266 H        1 ZINC000027563840    0.0700
76     H76    -0.0851   -2.7905    6.2187 H        1 ZINC000027563840    0.1300
77     H77    -1.4098   -2.0475    4.2501 H        1 ZINC000027563840    0.1300
78     H78    -1.4312   -3.4396    2.2191 H        1 ZINC000027563840    0.1500
79     H79     1.0857   -6.2316    3.9786 H        1 ZINC000027563840    0.1500
80     H80     6.4216   -0.6930    3.4364 H        1 ZINC000027563840    0.1500
81     H81     7.9465   -2.0408    2.9293 H        1 ZINC000027563840    0.0600
82     H82     9.6287   -1.5144    2.6809 H        1 ZINC000027563840    0.1100
83     H83     8.4974   -0.4812    3.5870 H        1 ZINC000027563840    0.0600
84     H84     7.7237   -1.4729   -1.1837 H        1 ZINC000027563840    0.0500
85     H85     6.3978   -0.7928   -2.1571 H        1 ZINC000027563840    0.0500
86     H86     8.0844   -0.3572   -2.5228 H        1 ZINC000027563840    0.1000
@<TRIPOS>BOND
1     1     2     1
2     1     47    1
3     1     48    1
4     1     49    1
5     2     3     1
6     3     44    ar
7     3     4     ar
8     4     5     ar
9     4     50    1
10    5     6     1
11    5     40    ar
12    6     7     2
13    6     8     1
14    8     9     2
15    8     10    am
16    10    15    1
17    10    11    1
18    11    12    1
19    11    51    1
20    11    52    1
21    12    13    1
22    12    53    1
23    12    54    1
24    13    14    1
25    13    55    1
26    13    56    1
27    14    15    1
28    14    57    1
29    14    58    1
30    15    16    1
31    15    17    1
32    17    18    2
33    17    19    1
34    19    20    1
35    20    21    1
36    20    22    1
37    20    31    1
38    22    23    1
39    22    59    1
40    22    60    1
41    23    24    1
42    23    61    1
43    23    62    1
44    24    25    1
45    24    63    1
46    24    64    1
47    25    30    ar
48    25    26    ar
49    26    27    ar
50    26    65    1
51    27    28    ar
52    27    66    1
53    28    29    ar
54    28    67    1
55    29    30    ar
56    29    68    1
57    30    69    1
58    31    32    1
59    31    70    1
60    31    71    1
61    32    33    1
62    32    72    1
63    32    73    1
64    33    34    1
65    33    74    1
66    33    75    1
67    34    39    ar
68    34    35    ar
69    35    36    ar
70    35    76    1
71    36    37    ar
72    36    77    1
73    37    38    ar
74    37    78    1
75    38    39    ar
76    39    79    1
77    40    41    ar
78    40    80    1
79    41    42    1
80    41    44    ar
81    42    43    1
82    43    81    1
83    43    82    1
84    43    83    1
85    44    45    1
86    45    46    1
87    46    84    1
88    46    85    1
89    46    86    1
@<TRIPOS>SUBSTRUCTURE
1   ZINC000027563840 1     RESIDUE    1   A     ZIN   1
