@<TRIPOS>MOLECULE
ZINC000014949271
58    63    1     0     0
SMALL
USER_CHARGES
@<TRIPOS>ATOM
1      O1     -0.0173    1.4248    0.0099 O.3      1 ZINC000014949271   -0.5700
2      C2      0.0021   -0.0041    0.0020 C.3      1 ZINC000014949271    0.1600
3      C3     -1.4117   -0.5257    0.0127 C.2      1 ZINC000014949271    0.0200
4      N4     -2.1465   -0.8000    1.0650 N.2      1 ZINC000014949271   -0.2600
5      N5     -3.2956   -1.2227    0.6735 N.pl3    1 ZINC000014949271   -0.2300
6      N6     -3.3667   -1.2451   -0.6102 N.2      1 ZINC000014949271   -0.2600
7      C7     -2.2189   -0.8135   -1.1033 C.2      1 ZINC000014949271    0.0500
8      C8     -1.8539   -0.6720   -2.5351 C.ar     1 ZINC000014949271    0.0500
9      C9     -1.0241    0.3791   -2.9410 C.ar     1 ZINC000014949271   -0.1200
10     C10    -0.6804    0.5217   -4.2525 C.ar     1 ZINC000014949271   -0.0500
11     C11    -1.1574   -0.3861   -5.2018 C.ar     1 ZINC000014949271   -0.1600
12     C12    -1.9923   -1.4471   -4.8041 C.ar     1 ZINC000014949271    0.1300
13     C13    -2.3327   -1.5859   -3.4627 C.ar     1 ZINC000014949271   -0.1000
14     N14    -2.2976   -2.1617   -5.9353 N.pl3    1 ZINC000014949271   -0.4900
15     N15    -1.6715   -1.5715   -7.0376 N.2      1 ZINC000014949271   -0.2000
16     C16    -0.9866   -0.5194   -6.6536 C.2      1 ZINC000014949271    0.1300
17     C17    -0.1899    0.3690   -7.5241 C.2      1 ZINC000014949271    0.1700
18     C18    -0.5097    0.7084   -8.7986 C.2      1 ZINC000014949271   -0.1500
19     C19     0.5456    1.5979   -9.2801 C.ar     1 ZINC000014949271   -0.1100
20     C20     0.7741    2.2632  -10.4880 C.ar     1 ZINC000014949271   -0.0300
21     C21     1.8858    3.0443  -10.6324 C.ar     1 ZINC000014949271   -0.1900
22     C22     2.1315    3.7612  -11.9350 C.3      1 ZINC000014949271    0.0500
23     N23     1.5035    5.0884  -11.8895 N.4      1 ZINC000014949271   -0.3800
24     H24     0.5253    4.9889  -11.6627 H        1 ZINC000014949271    0.4200
25     C25     1.6369    5.7364  -13.1998 C.3      1 ZINC000014949271   -0.0100
26     C26     0.9141    7.0849  -13.1821 C.3      1 ZINC000014949271   -0.1500
27     C27     1.5360    7.9771  -12.1040 C.3      1 ZINC000014949271   -0.1400
28     C28     1.4579    7.2591  -10.7536 C.3      1 ZINC000014949271   -0.1500
29     C29     2.1618    5.9046  -10.8625 C.3      1 ZINC000014949271   -0.0100
30     C30     2.7904    3.1831   -9.5890 C.ar     1 ZINC000014949271   -0.0900
31     C31     2.5851    2.5363   -8.3892 C.ar     1 ZINC000014949271   -0.1100
32     C32     1.4611    1.7356   -8.2189 C.ar     1 ZINC000014949271    0.1300
33     N33     0.9875    0.9843   -7.1653 N.pl3    1 ZINC000014949271   -0.5800
34     H34     0.8606    1.8301    0.0037 H        1 ZINC000014949271    0.3900
35     H35     0.5123   -0.3556   -0.8948 H        1 ZINC000014949271    0.0700
36     H36     0.5293   -0.3651    0.8851 H        1 ZINC000014949271    0.0700
37     H37    -4.0141   -1.4896    1.2679 H        1 ZINC000014949271    0.4800
38     H38    -0.6536    1.0826   -2.2101 H        1 ZINC000014949271    0.1500
39     H39    -0.0401    1.3361   -4.5577 H        1 ZINC000014949271    0.1300
40     H40    -2.9726   -2.3963   -3.1460 H        1 ZINC000014949271    0.1400
41     H41    -2.8594   -2.9518   -5.9655 H        1 ZINC000014949271    0.4500
42     H42    -1.3784    0.3832   -9.3518 H        1 ZINC000014949271    0.1600
43     H43     0.0746    2.1599  -11.3043 H        1 ZINC000014949271    0.1300
44     H44     3.2045    3.8722  -12.0919 H        1 ZINC000014949271    0.1300
45     H45     1.7023    3.1840  -12.7540 H        1 ZINC000014949271    0.1300
46     H46     2.6926    5.8933  -13.4212 H        1 ZINC000014949271    0.1300
47     H47     1.1967    5.0987  -13.9665 H        1 ZINC000014949271    0.1300
48     H48     1.0158    7.5652  -14.1553 H        1 ZINC000014949271    0.1100
49     H49    -0.1418    6.9291  -12.9611 H        1 ZINC000014949271    0.0900
50     H50     2.5788    8.1753  -12.3517 H        1 ZINC000014949271    0.0800
51     H51     0.9882    8.9179  -12.0488 H        1 ZINC000014949271    0.0900
52     H52     1.9485    7.8639   -9.9909 H        1 ZINC000014949271    0.1100
53     H53     0.4133    7.1068  -10.4821 H        1 ZINC000014949271    0.0900
54     H54     2.1088    5.3900   -9.9031 H        1 ZINC000014949271    0.1300
55     H55     3.2061    6.0592  -11.1337 H        1 ZINC000014949271    0.1300
56     H56     3.6645    3.8041   -9.7186 H        1 ZINC000014949271    0.1300
57     H57     3.2954    2.6508   -7.5838 H        1 ZINC000014949271    0.1300
58     H58     1.4201    0.9005   -6.3011 H        1 ZINC000014949271    0.4200
@<TRIPOS>BOND
1     1     2     1
2     1     34    1
3     2     3     1
4     2     35    1
5     2     36    1
6     3     7     1
7     3     4     2
8     4     5     1
9     5     6     1
10    5     37    1
11    6     7     2
12    7     8     1
13    8     13    ar
14    8     9     ar
15    9     10    ar
16    9     38    1
17    10    11    ar
18    10    39    1
19    11    16    1
20    11    12    ar
21    12    13    ar
22    12    14    1
23    13    40    1
24    14    15    1
25    14    41    1
26    15    16    2
27    16    17    1
28    17    33    1
29    17    18    2
30    18    19    1
31    18    42    1
32    19    32    ar
33    19    20    ar
34    20    21    ar
35    20    43    1
36    21    22    1
37    21    30    ar
38    22    23    1
39    22    44    1
40    22    45    1
41    23    24    1
42    23    29    1
43    23    25    1
44    25    26    1
45    25    46    1
46    25    47    1
47    26    27    1
48    26    48    1
49    26    49    1
50    27    28    1
51    27    50    1
52    27    51    1
53    28    29    1
54    28    52    1
55    28    53    1
56    29    54    1
57    29    55    1
58    30    31    ar
59    30    56    1
60    31    32    ar
61    31    57    1
62    32    33    1
63    33    58    1
@<TRIPOS>SUBSTRUCTURE
1   ZINC000014949271 1     RESIDUE    1   A     ZIN   1
