@<TRIPOS>MOLECULE
ZINC000013489180
45    47    1     0     0
SMALL
USER_CHARGES
@<TRIPOS>ATOM
1      C1     -0.0178    1.4608    0.0101 C.3      1 ZINC000013489180    0.0900
2      N2      0.0021   -0.0041    0.0020 N.pl3    1 ZINC000013489180   -0.6300
3      C3      0.0241   -0.7433    1.2666 C.3      1 ZINC000013489180    0.0900
4      C4      0.0000   -0.6949   -1.2096 C.ar     1 ZINC000013489180    0.2300
5      C5      0.0131   -2.0853   -1.2160 C.ar     1 ZINC000013489180   -0.2000
6      C6      0.0116   -2.7700   -2.4119 C.ar     1 ZINC000013489180   -0.0200
7      C7     -0.0037   -2.0672   -3.6166 C.ar     1 ZINC000013489180   -0.1200
8      C8     -0.0059   -2.8013   -4.9041 C.ar     1 ZINC000013489180    0.2300
9      N9      0.0014   -4.1358   -4.8925 N.ar     1 ZINC000013489180   -0.5500
10     C10    -0.0001   -4.8512   -5.9975 C.ar     1 ZINC000013489180    0.3900
11     O11     0.0071   -6.2039   -5.9281 O.3      1 ZINC000013489180   -0.3000
12     C12     0.0161   -6.7865   -4.6233 C.3      1 ZINC000013489180    0.0700
13     C13     0.0233   -8.3116   -4.7458 C.3      1 ZINC000013489180   -0.1200
14     C14     0.0329   -8.9354   -3.3488 C.3      1 ZINC000013489180    0.0800
15     O15     0.0396  -10.3598   -3.4632 O.3      1 ZINC000013489180   -0.5700
16     C16    -0.0096   -4.2098   -7.2539 C.ar     1 ZINC000013489180   -0.1800
17     C17    -0.0121   -4.9325   -8.4565 C.ar     1 ZINC000013489180   -0.0100
18     C18    -0.0219   -4.2296   -9.6304 C.ar     1 ZINC000013489180   -0.2000
19     C19    -0.0287   -2.8379   -9.6089 C.ar     1 ZINC000013489180    0.1600
20     N20    -0.0264   -2.1647   -8.4817 N.ar     1 ZINC000013489180   -0.4800
21     C21    -0.0175   -2.7918   -7.3038 C.ar     1 ZINC000013489180    0.1900
22     C22    -0.0211   -2.0867   -6.0877 C.ar     1 ZINC000013489180   -0.1900
23     C23    -0.0173   -0.6725   -3.6078 C.ar     1 ZINC000013489180   -0.0400
24     C24    -0.0209    0.0079   -2.4093 C.ar     1 ZINC000013489180   -0.2000
25     H25     1.0048    1.8381    0.0023 H        1 ZINC000013489180    0.0500
26     H26    -0.5450    1.8219   -0.8730 H        1 ZINC000013489180    0.0700
27     H27    -0.5280    1.8123    0.9069 H        1 ZINC000013489180    0.0700
28     H28     0.0224   -0.0395    2.0990 H        1 ZINC000013489180    0.0700
29     H29    -0.8567   -1.3823    1.3294 H        1 ZINC000013489180    0.0600
30     H30     0.9230   -1.3581    1.3125 H        1 ZINC000013489180    0.0600
31     H31     0.0249   -2.6291   -0.2829 H        1 ZINC000013489180    0.1200
32     H32     0.0225   -3.8499   -2.4164 H        1 ZINC000013489180    0.1300
33     H33     0.9069   -6.4609   -4.0862 H        1 ZINC000013489180    0.0700
34     H34    -0.8730   -6.4700   -4.0779 H        1 ZINC000013489180    0.0700
35     H35    -0.8675   -8.6371   -5.2830 H        1 ZINC000013489180    0.0800
36     H36     0.9124   -8.6281   -5.2912 H        1 ZINC000013489180    0.0800
37     H37     0.9238   -8.6098   -2.8117 H        1 ZINC000013489180    0.0500
38     H38    -0.8561   -8.6189   -2.8034 H        1 ZINC000013489180    0.0500
39     H39     0.0459  -10.8225   -2.6141 H        1 ZINC000013489180    0.3900
40     H40    -0.0061   -6.0125   -8.4557 H        1 ZINC000013489180    0.1500
41     H41    -0.0241   -4.7549  -10.5740 H        1 ZINC000013489180    0.1400
42     H42    -0.0357   -2.2976  -10.5440 H        1 ZINC000013489180    0.1700
43     H43    -0.0310   -1.0068   -6.0781 H        1 ZINC000013489180    0.1500
44     H44    -0.0287   -0.1263   -4.5394 H        1 ZINC000013489180    0.1300
45     H45    -0.0318    1.0878   -2.4020 H        1 ZINC000013489180    0.1300
@<TRIPOS>BOND
1     1     2     1
2     1     25    1
3     1     26    1
4     1     27    1
5     2     3     1
6     2     4     1
7     3     28    1
8     3     29    1
9     3     30    1
10    4     24    ar
11    4     5     ar
12    5     6     ar
13    5     31    1
14    6     7     ar
15    6     32    1
16    7     8     1
17    7     23    ar
18    8     22    ar
19    8     9     ar
20    9     10    ar
21    10    11    1
22    10    16    ar
23    11    12    1
24    12    13    1
25    12    33    1
26    12    34    1
27    13    14    1
28    13    35    1
29    13    36    1
30    14    15    1
31    14    37    1
32    14    38    1
33    15    39    1
34    16    21    ar
35    16    17    ar
36    17    18    ar
37    17    40    1
38    18    19    ar
39    18    41    1
40    19    20    ar
41    19    42    1
42    20    21    ar
43    21    22    ar
44    22    43    1
45    23    24    ar
46    23    44    1
47    24    45    1
@<TRIPOS>SUBSTRUCTURE
1   ZINC000013489180 1     RESIDUE    1   A     ZIN   1
