@<TRIPOS>MOLECULE
ZINC000019518213
  30   31    0    0    0
SMALL
USER_CHARGES
NO_NAME
@<TRIPOS>ATOM
    1 N1        0.0452    -1.1608    -0.0180 N.1    1 <0>      -0.4200
    2 C2        0.0212    -0.0252    -0.0027 C.1    1 <0>       0.2000
    3 C3       -0.0098     1.4464     0.0172 C.3    1 <0>       0.1500
    4 N4        1.3644     1.9654     0.0033 N.3    1 <0>      -0.5300
    5 C5        2.2099     1.2424     0.9627 C.3    1 <0>       0.0300
    6 C6        3.6665     1.6859     0.7902 C.3    1 <0>       0.1300
    7 N7        3.7237     3.1521     0.8923 N.pl3  1 <0>      -0.6300
    8 C8        4.6250     3.7758     1.7580 C.ar   1 <0>       0.2300
    9 C9        5.4040     3.0134     2.6190 C.ar   1 <0>      -0.2000
   10 C10       6.2950     3.6327     3.4738 C.ar   1 <0>      -0.0600
   11 C11       6.4120     5.0102     3.4738 C.ar   1 <0>      -0.1700
   12 C12       5.6371     5.7735     2.6176 C.ar   1 <0>       0.0200
   13 Cl13      5.7870     7.5030     2.6214 Cl     1 <0>      -0.0700
   14 C14       4.7484     5.1594     1.7556 C.ar   1 <0>      -0.1900
   15 C15       2.8063     3.9440     0.0590 C.3    1 <0>       0.1200
   16 C16       1.3835     3.4116     0.2602 C.3    1 <0>       0.0400
   17 H17      -0.5446     1.8104    -0.8601 H      1 <0>       0.1300
   18 H18      -0.5177     1.7869     0.9195 H      1 <0>       0.0800
   19 H19       1.8798     1.4643     1.9776 H      1 <0>       0.0500
   20 H20       2.1320     0.1706     0.7805 H      1 <0>       0.0900
   21 H21       4.2801     1.2401     1.5730 H      1 <0>       0.0900
   22 H22       4.0313     1.3725    -0.1880 H      1 <0>       0.0700
   23 H23       5.3129     1.9373     2.6204 H      1 <0>       0.1300
   24 H24       6.9007     3.0400     4.1433 H      1 <0>       0.1300
   25 H25       7.1091     5.4918     4.1434 H      1 <0>       0.1300
   26 H26       4.1439     5.7550     1.0876 H      1 <0>       0.1300
   27 H27       2.8512     4.9911     0.3584 H      1 <0>       0.0900
   28 H28       3.0884     3.8476    -0.9895 H      1 <0>       0.0800
   29 H29       0.7064     3.9129    -0.4313 H      1 <0>       0.1000
   30 H30       1.0650     3.6032     1.2849 H      1 <0>       0.0500
@<TRIPOS>BOND
   1    1    2 3
   2    2    3 1
   3    3    4 1
   4    3   17 1
   5    3   18 1
   6    4   16 1
   7    4    5 1
   8    5    6 1
   9    5   19 1
  10    5   20 1
  11    6    7 1
  12    6   21 1
  13    6   22 1
  14    7    8 1
  15    7   15 1
  16    8   14 ar
  17    8    9 ar
  18    9   10 ar
  19    9   23 1
  20   10   11 ar
  21   10   24 1
  22   11   12 ar
  23   11   25 1
  24   12   13 1
  25   12   14 ar
  26   14   26 1
  27   15   16 1
  28   15   27 1
  29   15   28 1
  30   16   29 1
  31   16   30 1
