@<TRIPOS>MOLECULE
ZINC000045369436
  39   41    0    0    0
SMALL
USER_CHARGES
NO_NAME
@<TRIPOS>ATOM
    1 C1       -0.0178     1.4608     0.0101 C.3    1 <0>       0.0900
    2 N2        0.0021    -0.0041     0.0020 N.pl3  1 <0>      -0.7100
    3 C3       -1.1865    -0.7121     0.0096 C.ar   1 <0>       0.4900
    4 C4       -1.1877    -2.1131     0.0079 C.ar   1 <0>      -0.2500
    5 C5       -0.1516    -3.1537    -0.0007 C.2    1 <0>      -0.1100
    6 C6        1.3159    -2.9441    -0.0100 C.ar   1 <0>       0.0100
    7 C7        1.8918    -2.0718    -0.9326 C.ar   1 <0>      -0.1400
    8 C8        3.2587    -1.8784    -0.9392 C.ar   1 <0>      -0.0900
    9 C9        4.0596    -2.5476    -0.0329 C.ar   1 <0>      -0.1500
   10 C10       3.4942    -3.4184     0.8891 C.ar   1 <0>       0.1100
   11 O11       4.2858    -4.0744     1.7779 O.3    1 <0>      -0.5000
   12 C12       2.1234    -3.6139     0.9072 C.ar   1 <0>      -0.1400
   13 C13      -0.8010    -4.3440     0.0025 C.2    1 <0>       0.0700
   14 N14      -2.1521    -4.1305     0.0122 N.pl3  1 <0>      -0.4500
   15 C15      -3.1666    -5.1873     0.0181 C.3    1 <0>       0.1300
   16 C16      -3.0087    -6.0528    -1.2337 C.3    1 <0>      -0.1600
   17 C17      -2.9904    -6.0566     1.2647 C.3    1 <0>      -0.1600
   18 C18      -2.4207    -2.7883     0.0157 C.ar   1 <0>       0.3500
   19 N19      -3.5408    -2.0668     0.0245 N.ar   1 <0>      -0.5700
   20 C20      -3.4932    -0.7521     0.0258 C.ar   1 <0>       0.3600
   21 N21      -2.3567    -0.0795     0.0241 N.ar   1 <0>      -0.6000
   22 H22       1.0048     1.8381     0.0023 H      1 <0>       0.0700
   23 H23      -0.5450     1.8219    -0.8730 H      1 <0>       0.0600
   24 H24      -0.5280     1.8123     0.9069 H      1 <0>       0.0600
   25 H25       0.8486    -0.4776    -0.0086 H      1 <0>       0.4100
   26 H26       1.2688    -1.5477    -1.6423 H      1 <0>       0.1300
   27 H27       3.7035    -1.2027    -1.6546 H      1 <0>       0.1300
   28 H28       5.1284    -2.3928    -0.0421 H      1 <0>       0.1300
   29 H29       4.4234    -3.5982     2.6082 H      1 <0>       0.3900
   30 H30       1.6824    -4.2907     1.6240 H      1 <0>       0.1300
   31 H31      -0.3242    -5.3130    -0.0024 H      1 <0>       0.1800
   32 H32      -4.1596    -4.7377     0.0260 H      1 <0>       0.1100
   33 H33      -3.7635    -6.8391    -1.2293 H      1 <0>       0.0800
   34 H34      -3.1343    -5.4335    -2.1218 H      1 <0>       0.0600
   35 H35      -2.0158    -6.5024    -1.2417 H      1 <0>       0.0600
   36 H36      -3.1029    -5.4400     2.1565 H      1 <0>       0.0600
   37 H37      -3.7452    -6.8429     1.2691 H      1 <0>       0.0800
   38 H38      -1.9974    -6.5062     1.2568 H      1 <0>       0.0600
   39 H39      -4.4216    -0.2003     0.0330 H      1 <0>       0.2000
@<TRIPOS>BOND
   1    1    2 1
   2    1   22 1
   3    1   23 1
   4    1   24 1
   5    2    3 1
   6    2   25 1
   7    3   21 ar
   8    3    4 ar
   9    4   18 ar
  10    4    5 1
  11    5    6 1
  12    5   13 2
  13    6   12 ar
  14    6    7 ar
  15    7    8 ar
  16    7   26 1
  17    8    9 ar
  18    8   27 1
  19    9   10 ar
  20    9   28 1
  21   10   11 1
  22   10   12 ar
  23   11   29 1
  24   12   30 1
  25   13   14 1
  26   13   31 1
  27   14   15 1
  28   14   18 1
  29   15   16 1
  30   15   17 1
  31   15   32 1
  32   16   33 1
  33   16   34 1
  34   16   35 1
  35   17   36 1
  36   17   37 1
  37   17   38 1
  38   18   19 ar
  39   19   20 ar
  40   20   21 ar
  41   20   39 1
