@<TRIPOS>MOLECULE
ZINC000038247838
  26   28    0    0    0
SMALL
USER_CHARGES
NO_NAME
@<TRIPOS>ATOM
    1 N1       -0.0204     1.6518     0.0111 N.am   1 <0>      -1.2500
    2 S2        0.0021    -0.0041     0.0020 S.o2   1 <0>       2.7300
    3 O3       -0.5249    -0.4194     1.2546 O.2    1 <0>      -0.9500
    4 O4       -0.5488    -0.4060    -1.2447 O.2    1 <0>      -0.9500
    5 C5        1.6920    -0.5027    -0.0168 C.2    1 <0>      -0.8200
    6 C6        2.4344    -0.7301     1.0638 C.2    1 <0>       0.0600
    7 C7        3.7463    -1.1159     0.7743 C.2    1 <0>      -0.0800
    8 C8        4.7428    -1.4182     1.8209 C.2    1 <0>       0.1700
    9 N9        4.5169    -1.3665     3.0915 N.2    1 <0>      -0.4500
   10 C10       5.5289    -1.6717     3.9235 C.ar   1 <0>       0.0800
   11 C11       5.5371    -1.6895     5.3352 C.ar   1 <0>      -0.0600
   12 C12       6.6765    -2.0298     6.0190 C.ar   1 <0>      -0.1100
   13 C13       7.8379    -2.3611     5.3365 C.ar   1 <0>      -0.1000
   14 C14       7.8545    -2.3504     3.9595 C.ar   1 <0>      -0.0700
   15 C15       6.7071    -2.0084     3.2477 C.ar   1 <0>      -0.1700
   16 S16       6.4036    -1.9071     1.5151 S.3    1 <0>       0.0700
   17 C17       4.0231    -1.1882    -0.5424 C.2    1 <0>      -0.1900
   18 S18       2.6468    -0.7814    -1.4654 S.3    1 <0>       0.3400
   19 H19       0.8130     2.1481     0.0058 H      1 <0>       0.4200
   20 H20      -0.8669     2.1253     0.0177 H      1 <0>       0.4200
   21 H21       2.0585    -0.6256     2.0709 H      1 <0>       0.1700
   22 H22       4.6406    -1.4333     5.8803 H      1 <0>       0.1400
   23 H23       6.6694    -2.0396     7.0989 H      1 <0>       0.1400
   24 H24       8.7294    -2.6271     5.8851 H      1 <0>       0.1400
   25 H25       8.7597    -2.6083     3.4299 H      1 <0>       0.1300
   26 H26       4.9807    -1.4683    -0.9557 H      1 <0>       0.1800
@<TRIPOS>BOND
   1    1    2 am
   2    1   19 1
   3    1   20 1
   4    2    3 2
   5    2    4 2
   6    2    5 1
   7    5   18 1
   8    5    6 2
   9    6    7 1
  10    6   21 1
  11    7    8 1
  12    7   17 2
  13    8   16 1
  14    8    9 2
  15    9   10 1
  16   10   15 ar
  17   10   11 ar
  18   11   12 ar
  19   11   22 1
  20   12   13 ar
  21   12   23 1
  22   13   14 ar
  23   13   24 1
  24   14   15 ar
  25   14   25 1
  26   15   16 1
  27   17   18 1
  28   17   26 1
