@<TRIPOS>MOLECULE
ZINC000000967541
  39   40    0    0    0
SMALL
USER_CHARGES
NO_NAME
@<TRIPOS>ATOM
    1 C1       -0.5105     1.4364     0.1532 C.2    1 <0>      -0.2100
    2 C2       -0.4240     0.1249     0.0631 C.2    1 <0>      -0.0800
    3 C3       -1.6771    -0.7210     0.2104 C.3    1 <0>      -0.0900
    4 C4       -2.3733    -0.5879     1.6734 C.3    1 <0>      -0.0900
    5 C5       -1.0318    -0.6151     2.5516 C.2    1 <0>      -0.2000
    6 C6       -0.4541    -1.7019     2.0578 C.2    1 <0>      -0.1200
    7 C7       -0.9121    -2.9925     1.5884 C.3    1 <0>      -0.1200
    8 C8        1.0288    -1.2790     1.9649 C.3    1 <0>      -0.1100
    9 C9        1.7003    -2.5170     1.2869 C.3    1 <0>      -0.1200
   10 C10       1.0881    -2.0659    -0.1329 C.3    1 <0>      -0.0800
   11 H11       0.2327    -2.6648    -0.4757 H      1 <0>       0.1100
   12 C12       0.9301    -0.5282    -0.2081 C.3    1 <0>      -0.0700
   13 H13       1.7527     0.0600     0.2430 H      1 <0>       0.1000
   14 C14       1.2011    -0.7571    -1.7108 C.3    1 <0>      -0.1400
   15 C15       2.1440    -1.8867    -1.2243 C.3    1 <0>      -0.1000
   16 C16       3.5184    -1.3842    -0.8119 C.3    1 <0>      -0.1300
   17 C17       2.2104    -3.0540    -2.2152 C.3    1 <0>      -0.1400
   18 H18       0.3737     2.0453     0.0355 H      1 <0>       0.0900
   19 H19      -1.4664     1.9030     0.3405 H      1 <0>       0.1000
   20 H20      -2.4337    -0.2201    -0.4584 H      1 <0>       0.0300
   21 H21      -1.6209    -1.6954    -0.1751 H      1 <0>       0.0800
   22 H22      -2.8598     0.3744     1.7567 H      1 <0>       0.0700
   23 H23      -3.0059    -1.4294     1.8761 H      1 <0>       0.0800
   24 H24      -0.7294     0.0722     3.3113 H      1 <0>       0.1500
   25 H25      -1.8753    -2.8774     1.0914 H      1 <0>       0.0700
   26 H26      -0.1868    -3.4016     0.8850 H      1 <0>       0.0900
   27 H27      -1.0189    -3.6702     2.4355 H      1 <0>       0.0700
   28 H28       1.1817    -0.2860     1.6548 H      1 <0>       0.1100
   29 H29       1.3736    -1.2539     3.0473 H      1 <0>       0.0200
   30 H30       2.7937    -2.4610     1.2985 H      1 <0>       0.0700
   31 H31       1.4046    -3.4989     1.6004 H      1 <0>       0.0900
   32 H32       0.3441    -1.1270    -2.2618 H      1 <0>       0.0800
   33 H33       1.7298     0.0592    -2.1906 H      1 <0>       0.0600
   34 H34       3.4137    -0.4472    -0.2648 H      1 <0>       0.0600
   35 H35       3.9999    -2.1255    -0.1740 H      1 <0>       0.0600
   36 H36       4.1270    -1.2197    -1.7010 H      1 <0>       0.0600
   37 H37       2.8819    -2.7974    -3.0345 H      1 <0>       0.0500
   38 H38       2.5823    -3.9427    -1.7053 H      1 <0>       0.0500
   39 H39       1.2141    -3.2522    -2.6105 H      1 <0>       0.0500
@<TRIPOS>BOND
   1    1    2 2
   2    1   18 1
   3    1   19 1
   4    2   12 1
   5    2    3 1
   6    3    4 1
   7    3   20 1
   8    3   21 1
   9    4    5 1
  10    4   22 1
  11    4   23 1
  12    5    6 2
  13    5   24 1
  14    6    7 1
  15    6    8 1
  16    7   25 1
  17    7   26 1
  18    7   27 1
  19    8    9 1
  20    8   28 1
  21    8   29 1
  22    9   10 1
  23    9   30 1
  24    9   31 1
  25   10   11 1
  26   10   15 1
  27   10   12 1
  28   12   13 1
  29   12   14 1
  30   14   15 1
  31   14   32 1
  32   14   33 1
  33   15   16 1
  34   15   17 1
  35   16   34 1
  36   16   35 1
  37   16   36 1
  38   17   37 1
  39   17   38 1
  40   17   39 1
