@<TRIPOS>MOLECULE
ZINC000008831165
57    60    1     0     0
SMALL
USER_CHARGES
@<TRIPOS>ATOM
1      C1     -0.0187    1.5258    0.0104 C.3      1 ZINC000008831165   -0.1400
2      C2      0.0021   -0.0041    0.0020 C.3      1 ZINC000008831165   -0.0400
3      C3      0.7421   -0.5109    1.2415 C.3      1 ZINC000008831165   -0.1400
4      C4     -1.4333   -0.5336    0.0129 C.3      1 ZINC000008831165   -0.1500
5      C5      0.7074   -0.4901   -1.2379 C.ar     1 ZINC000008831165   -0.0300
6      C6      0.0328   -1.2848   -2.1474 C.ar     1 ZINC000008831165   -0.1400
7      C7      0.6730   -1.7325   -3.2847 C.ar     1 ZINC000008831165   -0.0600
8      C8      2.0032   -1.3823   -3.5165 C.ar     1 ZINC000008831165   -0.0700
9      C9      2.6961   -1.8591   -4.7354 C.2      1 ZINC000008831165    0.4400
10     N10     3.9629   -1.5221   -4.9390 N.2      1 ZINC000008831165   -0.5200
11     C11     4.6013   -1.9453   -6.0342 C.2      1 ZINC000008831165    0.3600
12     C12     5.8932   -1.7631   -6.5106 C.2      1 ZINC000008831165   -0.3300
13     C13     6.0003   -2.4484   -7.7218 C.2      1 ZINC000008831165    0.5500
14     O14     6.9977   -2.5074   -8.4223 O.2      1 ZINC000008831165   -0.5200
15     N15     4.8163   -3.0346   -7.9864 N.am     1 ZINC000008831165   -0.5000
16     N16     3.9308   -2.7334   -6.9470 N.pl3    1 ZINC000008831165   -0.3300
17     C17     2.6278   -3.0627   -6.7085 C.2      1 ZINC000008831165    0.4100
18     S18     1.7418   -4.0674   -7.8532 S.3      1 ZINC000008831165    0.0400
19     C19     0.1367   -4.1515   -7.0209 C.3      1 ZINC000008831165   -0.1100
20     C20    -0.8265   -4.9985   -7.8549 C.3      1 ZINC000008831165   -0.1100
21     C21    -2.1833   -5.0695   -7.1514 C.3      1 ZINC000008831165    0.0700
22     O22    -3.0829   -5.8607   -7.9304 O.3      1 ZINC000008831165   -0.3100
23     C23    -4.3408   -6.0249   -7.4428 C.ar     1 ZINC000008831165    0.1300
24     C24    -4.7035   -5.4319   -6.2422 C.ar     1 ZINC000008831165   -0.2100
25     C25    -5.9829   -5.5999   -5.7489 C.ar     1 ZINC000008831165   -0.0800
26     C26    -6.9014   -6.3587   -6.4505 C.ar     1 ZINC000008831165   -0.1600
27     C27    -6.5423   -6.9511   -7.6470 C.ar     1 ZINC000008831165   -0.0800
28     C28    -5.2660   -6.7811   -8.1476 C.ar     1 ZINC000008831165   -0.1500
29     N29     2.0366   -2.6253   -5.6077 N.2      1 ZINC000008831165   -0.5600
30     C30     2.6780   -0.5807   -2.5956 C.ar     1 ZINC000008831165   -0.0500
31     C31     2.0252   -0.1349   -1.4647 C.ar     1 ZINC000008831165   -0.1300
32     H32     1.0039    1.9031    0.0027 H        1 ZINC000008831165    0.0600
33     H33    -0.5459    1.8868   -0.8726 H        1 ZINC000008831165    0.0600
34     H34    -0.5289    1.8773    0.9072 H        1 ZINC000008831165    0.0600
35     H35     0.2319   -0.1594    2.1383 H        1 ZINC000008831165    0.0600
36     H36     0.7568   -1.6008    1.2356 H        1 ZINC000008831165    0.0600
37     H37     1.7647   -0.1336    1.2338 H        1 ZINC000008831165    0.0600
38     H38    -1.9605   -0.1726   -0.8702 H        1 ZINC000008831165    0.0600
39     H39    -1.4185   -1.6235    0.0069 H        1 ZINC000008831165    0.0600
40     H40    -1.9435   -0.1821    0.9097 H        1 ZINC000008831165    0.0600
41     H41    -0.9970   -1.5556   -1.9667 H        1 ZINC000008831165    0.1400
42     H42     0.1454   -2.3532   -3.9939 H        1 ZINC000008831165    0.1300
43     H43     6.6746   -1.1930   -6.0302 H        1 ZINC000008831165    0.1800
44     H44     4.6127   -3.5747   -8.7660 H        1 ZINC000008831165    0.4400
45     H45     0.2607   -4.6046   -6.0373 H        1 ZINC000008831165    0.1100
46     H46    -0.2677   -3.1454   -6.9091 H        1 ZINC000008831165    0.1100
47     H47    -0.9505   -4.5454   -8.8385 H        1 ZINC000008831165    0.0900
48     H48    -0.4221   -6.0046   -7.9667 H        1 ZINC000008831165    0.0900
49     H49    -2.0593   -5.5227   -6.1679 H        1 ZINC000008831165    0.0700
50     H50    -2.5877   -4.0635   -7.0396 H        1 ZINC000008831165    0.0700
51     H51    -3.9861   -4.8396   -5.6935 H        1 ZINC000008831165    0.1300
52     H52    -6.2657   -5.1384   -4.8143 H        1 ZINC000008831165    0.1300
53     H53    -7.9011   -6.4891   -6.0630 H        1 ZINC000008831165    0.1200
54     H54    -7.2615   -7.5437   -8.1930 H        1 ZINC000008831165    0.1300
55     H55    -4.9859   -7.2440   -9.0823 H        1 ZINC000008831165    0.1300
56     H56     3.7079   -0.3062   -2.7695 H        1 ZINC000008831165    0.1400
57     H57     2.5465    0.4860   -0.7511 H        1 ZINC000008831165    0.1300
@<TRIPOS>BOND
1     1     2     1
2     1     32    1
3     1     33    1
4     1     34    1
5     2     3     1
6     2     4     1
7     2     5     1
8     3     35    1
9     3     36    1
10    3     37    1
11    4     38    1
12    4     39    1
13    4     40    1
14    5     31    ar
15    5     6     ar
16    6     7     ar
17    6     41    1
18    7     8     ar
19    7     42    1
20    8     9     1
21    8     30    ar
22    9     29    1
23    9     10    2
24    10    11    1
25    11    16    1
26    11    12    2
27    12    13    1
28    12    43    1
29    13    14    2
30    13    15    am
31    15    16    1
32    15    44    1
33    16    17    1
34    17    18    1
35    17    29    2
36    18    19    1
37    19    20    1
38    19    45    1
39    19    46    1
40    20    21    1
41    20    47    1
42    20    48    1
43    21    22    1
44    21    49    1
45    21    50    1
46    22    23    1
47    23    28    ar
48    23    24    ar
49    24    25    ar
50    24    51    1
51    25    26    ar
52    25    52    1
53    26    27    ar
54    26    53    1
55    27    28    ar
56    27    54    1
57    28    55    1
58    30    31    ar
59    30    56    1
60    31    57    1
@<TRIPOS>SUBSTRUCTURE
1   ZINC000008831165 1     RESIDUE    1   A     ZIN   1
