@<TRIPOS>MOLECULE
ZINC000003842037
72    76    1     0     0
SMALL
USER_CHARGES
@<TRIPOS>ATOM
1      C1     -5.9780   -5.9204    7.6289 C.3      1 ZINC000003842037   -0.1500
2      C2     -5.2471   -5.8071    6.2896 C.3      1 ZINC000003842037    0.0500
3      O3     -5.3831   -7.0327    5.5675 O.3      1 ZINC000003842037   -0.3100
4      C4     -4.7873   -7.0996    4.3474 C.ar     1 ZINC000003842037    0.1700
5      C5     -4.0819   -6.0091    3.8595 C.ar     1 ZINC000003842037   -0.1800
6      C6     -3.4770   -6.0763    2.6202 C.ar     1 ZINC000003842037   -0.0500
7      C7     -3.5743   -7.2357    1.8624 C.ar     1 ZINC000003842037    0.0600
8      N8     -2.9599   -7.3047    0.6042 N.am     1 ZINC000003842037   -0.4800
9      C9     -1.8878   -8.1114    0.4231 C.2      1 ZINC000003842037    0.5500
10     O10    -1.4408   -8.7840    1.3340 O.2      1 ZINC000003842037   -0.4800
11     C11    -1.2858   -8.1434   -0.9162 C.ar     1 ZINC000003842037   -0.2500
12     C12    -0.1788   -8.9384   -1.2132 C.ar     1 ZINC000003842037    0.0100
13     C13     0.3174   -8.9004   -2.5044 C.ar     1 ZINC000003842037   -0.1900
14     C14    -0.2916   -8.0861   -3.4477 C.ar     1 ZINC000003842037    0.1600
15     N15    -1.3359   -7.3423   -3.1495 N.ar     1 ZINC000003842037   -0.4700
16     C16    -1.8571   -7.3368   -1.9266 C.ar     1 ZINC000003842037    0.3500
17     N17    -2.9323   -6.5708   -1.6185 N.2      1 ZINC000003842037   -0.5000
18     C18    -3.4480   -6.5657   -0.4262 C.2      1 ZINC000003842037    0.4200
19     C19    -4.6435   -5.6848   -0.1693 C.3      1 ZINC000003842037    0.1800
20     H20    -4.5013   -5.1429    0.7656 H        1 ZINC000003842037    0.1300
21     C21    -4.7981   -4.6869   -1.3188 C.3      1 ZINC000003842037   -0.1500
22     N22    -5.8487   -6.5124   -0.0757 N.am     1 ZINC000003842037   -0.6000
23     C23    -6.2126   -7.4040   -1.1797 C.3      1 ZINC000003842037    0.1400
24     C24    -5.7148   -8.7958   -0.8864 C.ar     1 ZINC000003842037   -0.1600
25     C25    -4.4249   -9.1674   -1.2324 C.ar     1 ZINC000003842037   -0.0800
26     C26    -4.0097  -10.4584   -0.9426 C.ar     1 ZINC000003842037   -0.1700
27     C27    -4.8893  -11.3255   -0.3231 C.ar     1 ZINC000003842037    0.1100
28     N28    -6.1098  -10.9375   -0.0082 N.ar     1 ZINC000003842037   -0.4700
29     C29    -6.5368   -9.7164   -0.2637 C.ar     1 ZINC000003842037    0.1000
30     C30    -6.6226   -6.4535    1.0261 C.2      1 ZINC000003842037    0.5200
31     O31    -6.3732   -5.6506    1.9002 O.2      1 ZINC000003842037   -0.5000
32     C32    -7.7980   -7.3854    1.1720 C.3      1 ZINC000003842037   -0.1100
33     C33    -8.6053   -6.9901    2.3816 C.ar     1 ZINC000003842037   -0.0900
34     C34    -8.3084   -7.5344    3.6175 C.ar     1 ZINC000003842037   -0.0600
35     C35    -9.0469   -7.1737    4.7278 C.ar     1 ZINC000003842037   -0.1200
36     C36   -10.0870   -6.2642    4.6021 C.ar     1 ZINC000003842037    0.1100
37     O37   -10.8147   -5.9074    5.6930 O.3      1 ZINC000003842037   -0.3100
38     C38   -11.8704   -4.9661    5.4891 C.3      1 ZINC000003842037    0.6000
39     F39   -12.7927   -5.4901    4.5769 F        1 ZINC000003842037   -0.1600
40     F40   -12.5111   -4.7130    6.7067 F        1 ZINC000003842037   -0.1300
41     F41   -11.3409   -3.7737    4.9840 F        1 ZINC000003842037   -0.1600
42     C42   -10.3826   -5.7192    3.3611 C.ar     1 ZINC000003842037   -0.1900
43     C43    -9.6380   -6.0795    2.2547 C.ar     1 ZINC000003842037   -0.0600
44     C44    -4.2800   -8.3269    2.3514 C.ar     1 ZINC000003842037   -0.0500
45     C45    -4.8801   -8.2604    3.5931 C.ar     1 ZINC000003842037   -0.1500
46     H46    -5.8743   -4.9855    8.1796 H        1 ZINC000003842037    0.0800
47     H47    -7.0343   -6.1217    7.4504 H        1 ZINC000003842037    0.0700
48     H48    -5.5463   -6.7347    8.2107 H        1 ZINC000003842037    0.0700
49     H49    -5.6789   -4.9928    5.7077 H        1 ZINC000003842037    0.0700
50     H50    -4.1908   -5.6058    6.4680 H        1 ZINC000003842037    0.0600
51     H51    -4.0062   -5.1073    4.4490 H        1 ZINC000003842037    0.1400
52     H52    -2.9285   -5.2271    2.2402 H        1 ZINC000003842037    0.1300
53     H53     0.2767   -9.5634   -0.4593 H        1 ZINC000003842037    0.1500
54     H54     1.1733   -9.5005   -2.7757 H        1 ZINC000003842037    0.1500
55     H55     0.1015   -8.0615   -4.4533 H        1 ZINC000003842037    0.1700
56     H56    -3.8708   -4.1273   -1.4413 H        1 ZINC000003842037    0.0800
57     H57    -5.0218   -5.2254   -2.2397 H        1 ZINC000003842037    0.0800
58     H58    -5.6118   -3.9973   -1.0943 H        1 ZINC000003842037    0.0700
59     H59    -7.2969   -7.4217   -1.2901 H        1 ZINC000003842037    0.1000
60     H60    -5.7592   -7.0430   -2.1028 H        1 ZINC000003842037    0.1100
61     H61    -3.7592   -8.4681   -1.7164 H        1 ZINC000003842037    0.1300
62     H62    -3.0116  -10.7821   -1.1983 H        1 ZINC000003842037    0.1300
63     H63    -4.5738  -12.3327   -0.0944 H        1 ZINC000003842037    0.1600
64     H64    -7.5432   -9.4349    0.0088 H        1 ZINC000003842037    0.1600
65     H65    -8.4235   -7.3233    0.2816 H        1 ZINC000003842037    0.1100
66     H66    -7.4386   -8.4073    1.2931 H        1 ZINC000003842037    0.1100
67     H67    -7.4986   -8.2423    3.7148 H        1 ZINC000003842037    0.1300
68     H68    -8.8151   -7.5996    5.6928 H        1 ZINC000003842037    0.1400
69     H69   -11.1920   -5.0112    3.2606 H        1 ZINC000003842037    0.1300
70     H70    -9.8675   -5.6552    1.2884 H        1 ZINC000003842037    0.1300
71     H71    -4.3564   -9.2288    1.7623 H        1 ZINC000003842037    0.1200
72     H72    -5.4288   -9.1092    3.9737 H        1 ZINC000003842037    0.1400
@<TRIPOS>BOND
1     1     2     1
2     1     46    1
3     1     47    1
4     1     48    1
5     2     3     1
6     2     49    1
7     2     50    1
8     3     4     1
9     4     45    ar
10    4     5     ar
11    5     6     ar
12    5     51    1
13    6     7     ar
14    6     52    1
15    7     8     1
16    7     44    ar
17    8     18    1
18    8     9     am
19    9     10    2
20    9     11    1
21    11    16    ar
22    11    12    ar
23    12    13    ar
24    12    53    1
25    13    14    ar
26    13    54    1
27    14    15    ar
28    14    55    1
29    15    16    ar
30    16    17    1
31    17    18    2
32    18    19    1
33    19    20    1
34    19    21    1
35    19    22    1
36    21    56    1
37    21    57    1
38    21    58    1
39    22    23    1
40    22    30    am
41    23    24    1
42    23    59    1
43    23    60    1
44    24    29    ar
45    24    25    ar
46    25    26    ar
47    25    61    1
48    26    27    ar
49    26    62    1
50    27    28    ar
51    27    63    1
52    28    29    ar
53    29    64    1
54    30    31    2
55    30    32    1
56    32    33    1
57    32    65    1
58    32    66    1
59    33    43    ar
60    33    34    ar
61    34    35    ar
62    34    67    1
63    35    36    ar
64    35    68    1
65    36    37    1
66    36    42    ar
67    37    38    1
68    38    39    1
69    38    40    1
70    38    41    1
71    42    43    ar
72    42    69    1
73    43    70    1
74    44    45    ar
75    44    71    1
76    45    72    1
@<TRIPOS>SUBSTRUCTURE
1   ZINC000003842037 1     RESIDUE    1   A     ZIN   1
