@<TRIPOS>MOLECULE
ZINC000299862079
80    87    1     0     0
SMALL
USER_CHARGES
@<TRIPOS>ATOM
1      N1      0.2580   -1.0464    0.8697 N.1      1 ZINC000299862079   -0.4000
2      C2      0.3361    0.0861    0.8290 C.1      1 ZINC000299862079    0.2700
3      C3      0.4346    1.5138    0.7777 C.ar     1 ZINC000299862079   -0.0600
4      C4     -0.7246    2.3164    0.8267 C.ar     1 ZINC000299862079    0.0700
5      C5     -2.0695    1.7033    0.9328 C.ar     1 ZINC000299862079   -0.0700
6      C6     -2.9692    2.1523    1.8989 C.ar     1 ZINC000299862079   -0.0900
7      C7     -4.2202    1.5775    1.9929 C.ar     1 ZINC000299862079   -0.1200
8      C8     -4.5824    0.5578    1.1310 C.ar     1 ZINC000299862079   -0.1000
9      C9     -3.6940    0.1078    0.1708 C.ar     1 ZINC000299862079   -0.1200
10     C10    -2.4425    0.6790    0.0632 C.ar     1 ZINC000299862079   -0.0900
11     C11    -0.5722    3.7008    0.7733 C.ar     1 ZINC000299862079   -0.1700
12     C12     0.7055    4.2455    0.6742 C.ar     1 ZINC000299862079    0.2400
13     C13     0.8660    5.7183    0.6174 C.ar     1 ZINC000299862079   -0.0600
14     C14    -0.2541    6.5467    0.6690 C.ar     1 ZINC000299862079   -0.0900
15     C15    -0.0986    7.9169    0.6162 C.ar     1 ZINC000299862079   -0.1200
16     C16     1.1657    8.4687    0.5120 C.ar     1 ZINC000299862079   -0.1000
17     C17     2.2808    7.6516    0.4604 C.ar     1 ZINC000299862079   -0.1200
18     C18     2.1379    6.2802    0.5182 C.ar     1 ZINC000299862079   -0.0700
19     N19     1.7819    3.4713    0.6300 N.ar     1 ZINC000299862079   -0.5300
20     C20     1.6959    2.1459    0.6829 C.ar     1 ZINC000299862079    0.3800
21     N21     2.8203    1.3975    0.6346 N.2      1 ZINC000299862079   -0.4900
22     C22     4.0006    1.9837    0.5351 C.2      1 ZINC000299862079    0.4100
23     S23     4.3316    3.7245    0.4590 S.3      1 ZINC000299862079    0.1600
24     C24     6.0905    3.5223    0.3437 C.2      1 ZINC000299862079   -0.3600
25     C25     7.0536    4.5209    0.2470 C.2      1 ZINC000299862079    0.2300
26     S26     6.7933    6.2726    0.1449 S.3      1 ZINC000299862079    0.1700
27     C27     8.5195    6.6663    0.0612 C.2      1 ZINC000299862079    0.0100
28     C28     9.1182    8.0081   -0.0441 C.2      1 ZINC000299862079    0.6200
29     O29     8.4035    8.9916   -0.0825 O.2      1 ZINC000299862079   -0.4800
30     N30    10.4578    8.1460   -0.0979 N.am     1 ZINC000299862079   -0.6400
31     C31    11.0292    9.4219   -0.1124 C.ar     1 ZINC000299862079    0.1400
32     C32    12.1913    9.6559   -0.8363 C.ar     1 ZINC000299862079   -0.1400
33     C33    12.7532   10.9175   -0.8485 C.ar     1 ZINC000299862079   -0.1000
34     C34    12.1603   11.9470   -0.1408 C.ar     1 ZINC000299862079   -0.1300
35     C35    11.0033   11.7174    0.5809 C.ar     1 ZINC000299862079   -0.1000
36     C36    10.4328   10.4597    0.5923 C.ar     1 ZINC000299862079   -0.1200
37     N37     9.1503    5.5298    0.1118 N.2      1 ZINC000299862079   -0.1800
38     N38     8.4130    4.3716    0.2154 N.pl3    1 ZINC000299862079   -0.3400
39     C39     9.0196    3.1124    0.2749 C.ar     1 ZINC000299862079    0.1700
40     C40     9.3243    2.4305   -0.8964 C.ar     1 ZINC000299862079   -0.0800
41     C41     9.9230    1.1876   -0.8342 C.ar     1 ZINC000299862079   -0.1000
42     C42    10.2188    0.6215    0.3925 C.ar     1 ZINC000299862079   -0.0900
43     C43     9.9168    1.2976    1.5605 C.ar     1 ZINC000299862079   -0.1000
44     C44     9.3237    2.5435    1.5052 C.ar     1 ZINC000299862079   -0.0800
45     C45     6.2964    2.1428    0.3717 C.2      1 ZINC000299862079    0.5600
46     O46     7.4185    1.6649    0.3088 O.2      1 ZINC000299862079   -0.4700
47     N47     5.2252    1.3755    0.4752 N.am     1 ZINC000299862079   -0.4800
48     C48     5.3392   -0.0204    0.5106 C.ar     1 ZINC000299862079    0.1200
49     C49     4.8142   -0.7344    1.5795 C.ar     1 ZINC000299862079   -0.0900
50     C50     4.9282   -2.1105    1.6115 C.ar     1 ZINC000299862079   -0.1100
51     C51     5.5648   -2.7771    0.5807 C.ar     1 ZINC000299862079   -0.1100
52     C52     6.0886   -2.0689   -0.4852 C.ar     1 ZINC000299862079   -0.1100
53     C53     5.9724   -0.6932   -0.5260 C.ar     1 ZINC000299862079   -0.0900
54     H54    -2.6874    2.9481    2.5725 H        1 ZINC000299862079    0.1300
55     H55    -4.9178    1.9242    2.7409 H        1 ZINC000299862079    0.1300
56     H56    -5.5626    0.1110    1.2084 H        1 ZINC000299862079    0.1300
57     H57    -3.9821   -0.6891   -0.4988 H        1 ZINC000299862079    0.1300
58     H58    -1.7498    0.3272   -0.6871 H        1 ZINC000299862079    0.1200
59     H59    -1.4379    4.3457    0.8081 H        1 ZINC000299862079    0.1500
60     H60    -1.2417    6.1170    0.7497 H        1 ZINC000299862079    0.1300
61     H61    -0.9656    8.5596    0.6561 H        1 ZINC000299862079    0.1300
62     H62     1.2826    9.5415    0.4703 H        1 ZINC000299862079    0.1300
63     H63     3.2654    8.0880    0.3790 H        1 ZINC000299862079    0.1300
64     H64     3.0092    5.6433    0.4778 H        1 ZINC000299862079    0.1300
65     H65    11.0255    7.3600   -0.1265 H        1 ZINC000299862079    0.4200
66     H66    12.6552    8.8521   -1.3887 H        1 ZINC000299862079    0.1300
67     H67    13.6568   11.1001   -1.4111 H        1 ZINC000299862079    0.1300
68     H68    12.6021   12.9324   -0.1514 H        1 ZINC000299862079    0.1300
69     H69    10.5427   12.5236    1.1326 H        1 ZINC000299862079    0.1300
70     H70     9.5289   10.2812    1.1559 H        1 ZINC000299862079    0.1400
71     H71     9.0930    2.8717   -1.8547 H        1 ZINC000299862079    0.1200
72     H72    10.1602    0.6569   -1.7444 H        1 ZINC000299862079    0.1300
73     H73    10.6864   -0.3509    0.4384 H        1 ZINC000299862079    0.1200
74     H74    10.1491    0.8527    2.5168 H        1 ZINC000299862079    0.1300
75     H75     9.0880    3.0710    2.4177 H        1 ZINC000299862079    0.1200
76     H76     4.3176   -0.2142    2.3852 H        1 ZINC000299862079    0.1200
77     H77     4.5201   -2.6664    2.4427 H        1 ZINC000299862079    0.1300
78     H78     5.6533   -3.8532    0.6083 H        1 ZINC000299862079    0.1300
79     H79     6.5852   -2.5924   -1.2888 H        1 ZINC000299862079    0.1300
80     H80     6.3813   -0.1406   -1.3589 H        1 ZINC000299862079    0.1200
@<TRIPOS>BOND
1     1     2     3
2     2     3     1
3     3     20    ar
4     3     4     ar
5     4     5     1
6     4     11    ar
7     5     10    ar
8     5     6     ar
9     6     7     ar
10    6     54    1
11    7     8     ar
12    7     55    1
13    8     9     ar
14    8     56    1
15    9     10    ar
16    9     57    1
17    10    58    1
18    11    12    ar
19    11    59    1
20    12    13    1
21    12    19    ar
22    13    18    ar
23    13    14    ar
24    14    15    ar
25    14    60    1
26    15    16    ar
27    15    61    1
28    16    17    ar
29    16    62    1
30    17    18    ar
31    17    63    1
32    18    64    1
33    19    20    ar
34    20    21    1
35    21    22    2
36    22    47    1
37    22    23    1
38    23    24    1
39    24    25    2
40    24    45    1
41    25    38    1
42    25    26    1
43    26    27    1
44    27    28    1
45    27    37    2
46    28    29    2
47    28    30    am
48    30    31    1
49    30    65    1
50    31    36    ar
51    31    32    ar
52    32    33    ar
53    32    66    1
54    33    34    ar
55    33    67    1
56    34    35    ar
57    34    68    1
58    35    36    ar
59    35    69    1
60    36    70    1
61    37    38    1
62    38    39    1
63    39    44    ar
64    39    40    ar
65    40    41    ar
66    40    71    1
67    41    42    ar
68    41    72    1
69    42    43    ar
70    42    73    1
71    43    44    ar
72    43    74    1
73    44    75    1
74    45    46    2
75    45    47    am
76    47    48    1
77    48    53    ar
78    48    49    ar
79    49    50    ar
80    49    76    1
81    50    51    ar
82    50    77    1
83    51    52    ar
84    51    78    1
85    52    53    ar
86    52    79    1
87    53    80    1
@<TRIPOS>SUBSTRUCTURE
1   ZINC000299862079 1     RESIDUE    1   A     ZIN   1
