@<TRIPOS>MOLECULE
ZINC000068244750
53    57    1     0     0
SMALL
USER_CHARGES
@<TRIPOS>ATOM
1      C1     -0.0742    1.2987    2.5956 C.3      1 ZINC000068244750   -0.1500
2      C2     -0.3036    0.4621    1.3353 C.3      1 ZINC000068244750    0.0500
3      H3     -0.3217    1.1154    0.4630 H        1 ZINC000068244750    0.0700
4      C4     -1.6397   -0.2769    1.4484 C.3      1 ZINC000068244750    0.0700
5      O5     -1.8138   -1.1147    0.3025 O.3      1 ZINC000068244750   -0.3800
6      C6     -0.7742   -2.0822    0.1334 C.3      1 ZINC000068244750    0.0700
7      C7      0.5706   -1.3616    0.0070 C.3      1 ZINC000068244750    0.0200
8      N8      0.7829   -0.5179    1.1922 N.3      1 ZINC000068244750   -0.4800
9      C9      2.0165    0.1108    1.1397 C.ar     1 ZINC000068244750    0.3600
10     C10     3.0040   -0.1864    2.0823 C.ar     1 ZINC000068244750   -0.2000
11     C11     4.2200    0.4647    1.9920 C.ar     1 ZINC000068244750    0.2300
12     C12     5.3144    0.1753    2.9867 C.3      1 ZINC000068244750   -0.6000
13     S13     6.4135    1.5672    3.3677 S.o2     1 ZINC000068244750    2.4600
14     C14     5.2374    2.8332    3.9196 C.3      1 ZINC000068244750   -0.6500
15     O15     7.2380    1.2053    4.4670 O.2      1 ZINC000068244750   -0.9300
16     O16     7.0204    2.0084    2.1609 O.2      1 ZINC000068244750   -0.9100
17     C17     5.0002   -0.8072    4.1167 C.3      1 ZINC000068244750   -0.1200
18     C18     5.9277   -1.2263    2.9744 C.3      1 ZINC000068244750   -0.1000
19     N19     4.4133    1.3449    1.0222 N.ar     1 ZINC000068244750   -0.5100
20     C20     3.4577    1.6081    0.1399 C.ar     1 ZINC000068244750    0.4000
21     C21     3.7150    2.5993   -0.9290 C.ar     1 ZINC000068244750   -0.0200
22     C22     2.6813    2.9883   -1.8005 C.ar     1 ZINC000068244750   -0.0600
23     C23     1.2722    2.6229   -1.9319 C.2      1 ZINC000068244750   -0.1900
24     C24     0.7777    3.3288   -2.9635 C.2      1 ZINC000068244750    0.0500
25     N25     1.7578    4.1154   -3.5012 N.pl3    1 ZINC000068244750   -0.6000
26     C26     2.9364    3.9309   -2.8122 C.ar     1 ZINC000068244750    0.0800
27     C27     4.2118    4.4704   -2.9398 C.ar     1 ZINC000068244750   -0.1000
28     C28     5.2185    4.0826   -2.0802 C.ar     1 ZINC000068244750   -0.1100
29     C29     4.9787    3.1588   -1.0775 C.ar     1 ZINC000068244750   -0.0800
30     N30     2.2792    1.0006    0.1891 N.ar     1 ZINC000068244750   -0.5300
31     H31     0.9071    1.7705    2.5449 H        1 ZINC000068244750    0.0500
32     H32    -0.8438    2.0674    2.6665 H        1 ZINC000068244750    0.0700
33     H33    -0.1226    0.6542    3.4733 H        1 ZINC000068244750    0.0700
34     H34    -1.6420   -0.8888    2.3504 H        1 ZINC000068244750    0.0600
35     H35    -2.4530    0.4471    1.4969 H        1 ZINC000068244750    0.1000
36     H36    -0.7513   -2.7466    0.9972 H        1 ZINC000068244750    0.0600
37     H37    -0.9617   -2.6639   -0.7692 H        1 ZINC000068244750    0.1000
38     H38     1.3722   -2.0967   -0.0647 H        1 ZINC000068244750    0.0900
39     H39     0.5668   -0.7379   -0.8869 H        1 ZINC000068244750    0.0600
40     H40     2.8212   -0.9085    2.8644 H        1 ZINC000068244750    0.1600
41     H41     4.7524    2.5029    4.8382 H        1 ZINC000068244750    0.1300
42     H42     5.7687    3.7668    4.1047 H        1 ZINC000068244750    0.1300
43     H43     4.4843    2.9907    3.1475 H        1 ZINC000068244750    0.1200
44     H44     5.4539   -0.6172    5.0894 H        1 ZINC000068244750    0.1300
45     H45     4.0020   -1.2442    4.1406 H        1 ZINC000068244750    0.1200
46     H46     5.5397   -1.9391    2.2467 H        1 ZINC000068244750    0.1200
47     H47     6.9916   -1.3121    3.1956 H        1 ZINC000068244750    0.1200
48     H48     0.7309    1.9193   -1.3169 H        1 ZINC000068244750    0.1500
49     H49    -0.2423    3.2812   -3.3154 H        1 ZINC000068244750    0.1700
50     H50     1.6409    4.7141   -4.2554 H        1 ZINC000068244750    0.4200
51     H51     4.4148    5.1949   -3.7146 H        1 ZINC000068244750    0.1200
52     H52     6.2054    4.5075   -2.1889 H        1 ZINC000068244750    0.1300
53     H53     5.7782    2.8661   -0.4130 H        1 ZINC000068244750    0.1500
@<TRIPOS>BOND
1     1     2     1
2     1     31    1
3     1     32    1
4     1     33    1
5     2     3     1
6     2     8     1
7     2     4     1
8     4     5     1
9     4     34    1
10    4     35    1
11    5     6     1
12    6     7     1
13    6     36    1
14    6     37    1
15    7     8     1
16    7     38    1
17    7     39    1
18    8     9     1
19    9     30    ar
20    9     10    ar
21    10    11    ar
22    10    40    1
23    11    12    1
24    11    19    ar
25    12    18    1
26    12    13    1
27    12    17    1
28    13    14    1
29    13    15    2
30    13    16    2
31    14    41    1
32    14    42    1
33    14    43    1
34    17    18    1
35    17    44    1
36    17    45    1
37    18    46    1
38    18    47    1
39    19    20    ar
40    20    21    1
41    20    30    ar
42    21    29    ar
43    21    22    ar
44    22    26    ar
45    22    23    1
46    23    24    2
47    23    48    1
48    24    25    1
49    24    49    1
50    25    26    1
51    25    50    1
52    26    27    ar
53    27    28    ar
54    27    51    1
55    28    29    ar
56    28    52    1
57    29    53    1
@<TRIPOS>SUBSTRUCTURE
1   ZINC000068244750 1     RESIDUE    1   A     ZIN   1
