@<TRIPOS>MOLECULE
ZINC000003874852
28    30    1     0     0
SMALL
USER_CHARGES
@<TRIPOS>ATOM
1      O1     -0.0135    0.1085    0.5371 O.2      1 ZINC000003874852   -0.5200
2      C2     -0.0185    1.2464    0.1040 C.2      1 ZINC000003874852    0.5600
3      N3     -1.1084    1.9734   -0.1950 N.am     1 ZINC000003874852   -0.6500
4      C4     -0.7634    3.2344   -0.6677 C.ar     1 ZINC000003874852    0.1500
5      C5     -1.5394    4.3070   -1.0922 C.ar     1 ZINC000003874852   -0.1400
6      C6     -0.9358    5.4712   -1.5236 C.ar     1 ZINC000003874852   -0.0600
7      C7      0.4443    5.5864   -1.5390 C.ar     1 ZINC000003874852   -0.1200
8      I8      1.3388    7.3626   -2.1978 I        1 ZINC000003874852   -0.0400
9      C9      1.2316    4.5316   -1.1201 C.ar     1 ZINC000003874852   -0.0400
10     C10     0.6327    3.3548   -0.6847 C.ar     1 ZINC000003874852   -0.0700
11     C11     1.1687    2.0707   -0.1783 C.2      1 ZINC000003874852   -0.2300
12     C12     2.4786    1.7258   -0.0103 C.2      1 ZINC000003874852    0.1100
13     C13     3.5256    2.7450   -0.1267 C.ar     1 ZINC000003874852   -0.2500
14     C14     3.3586    3.9975    0.4799 C.ar     1 ZINC000003874852    0.0100
15     C15     4.3453    4.9511    0.3672 C.ar     1 ZINC000003874852   -0.2200
16     Br16    4.1219    6.6414    1.1849 Br       1 ZINC000003874852   -0.0700
17     C17     5.5066    4.6732   -0.3467 C.ar     1 ZINC000003874852    0.3300
18     O18     6.4766    5.6167   -0.4538 O.3      1 ZINC000003874852   -0.6300
19     C19     5.6778    3.4317   -0.9509 C.ar     1 ZINC000003874852   -0.2200
20     Br20    7.2598    3.0635   -1.9192 Br       1 ZINC000003874852   -0.0800
21     C21     4.7000    2.4687   -0.8403 C.ar     1 ZINC000003874852    0.0100
22     H22    -2.0202    1.6582   -0.0939 H        1 ZINC000003874852    0.4100
23     H23    -2.6166    4.2292   -1.0848 H        1 ZINC000003874852    0.1300
24     H24    -1.5455    6.2997   -1.8525 H        1 ZINC000003874852    0.1300
25     H25     2.3079    4.6202   -1.1316 H        1 ZINC000003874852    0.1500
26     H26     2.7436    0.7019    0.2084 H        1 ZINC000003874852    0.1300
27     H27     2.4575    4.2143    1.0344 H        1 ZINC000003874852    0.1100
28     H28     4.8340    1.5052   -1.3094 H        1 ZINC000003874852    0.1200
@<TRIPOS>BOND
1     1     2     2
2     2     11    1
3     2     3     am
4     3     4     1
5     3     22    1
6     4     10    ar
7     4     5     ar
8     5     6     ar
9     5     23    1
10    6     7     ar
11    6     24    1
12    7     8     1
13    7     9     ar
14    9     10    ar
15    9     25    1
16    10    11    1
17    11    12    2
18    12    13    1
19    12    26    1
20    13    21    ar
21    13    14    ar
22    14    15    ar
23    14    27    1
24    15    16    1
25    15    17    ar
26    17    18    1
27    17    19    ar
28    19    20    1
29    19    21    ar
30    21    28    1
@<TRIPOS>SUBSTRUCTURE
1   ZINC000003874852 1     RESIDUE    1   A     ZIN   1
