@<TRIPOS>MOLECULE
ZINC000000001661
37    37    1     0     0
SMALL
USER_CHARGES
@<TRIPOS>ATOM
1      N1     -2.4217    0.9981    0.2595 N.4      1 ZINC000000001661   -0.6100
2      H2     -2.4302    0.3042   -0.4730 H        1 ZINC000000001661    0.4300
3      H3     -2.2828    0.5451    1.1503 H        1 ZINC000000001661    0.4300
4      H4     -3.3023    1.4907    0.2663 H        1 ZINC000000001661    0.4100
5      C5     -1.3296    1.9507    0.0190 C.3      1 ZINC000000001661   -0.0400
6      H6     -1.3205    2.7003    0.8102 H        1 ZINC000000001661    0.1300
7      C7     -1.5403    2.6376   -1.3318 C.3      1 ZINC000000001661   -0.0800
8      C8     -2.7937    3.4727   -1.2807 C.ar     1 ZINC000000001661   -0.1600
9      C9     -4.0079    2.9171   -1.6404 C.ar     1 ZINC000000001661   -0.0900
10     C10    -5.1594    3.6780   -1.5893 C.ar     1 ZINC000000001661   -0.1900
11     C11    -5.0952    5.0059   -1.1868 C.ar     1 ZINC000000001661    0.2100
12     N12    -6.2570    5.7798   -1.1390 N.pl3    1 ZINC000000001661   -0.6200
13     C13    -7.5451    5.1912   -1.5139 C.3      1 ZINC000000001661    0.1100
14     C14    -8.2068    4.5815   -0.2765 C.3      1 ZINC000000001661   -0.0600
15     Cl15   -9.7921    3.8572   -0.7380 Cl       1 ZINC000000001661   -0.1700
16     C16    -6.1875    7.1800   -0.7138 C.3      1 ZINC000000001661    0.1100
17     C17    -5.9500    8.0722   -1.9338 C.3      1 ZINC000000001661   -0.0600
18     Cl18   -5.8644    9.7955   -1.4106 Cl       1 ZINC000000001661   -0.1700
19     C19    -3.8730    5.5624   -0.8316 C.ar     1 ZINC000000001661   -0.1800
20     C20    -2.7263    4.7944   -0.8796 C.ar     1 ZINC000000001661   -0.0500
21     C21    -0.0145    1.2150    0.0087 C.2      1 ZINC000000001661    0.4900
22     O22     0.0021   -0.0041    0.0020 O.co2    1 ZINC000000001661   -0.6700
23     O23     1.0330    1.8389    0.0021 O.co2    1 ZINC000000001661   -0.6400
24     H24    -0.6858    3.2779   -1.5510 H        1 ZINC000000001661    0.1200
25     H25    -1.6382    1.8827   -2.1120 H        1 ZINC000000001661    0.0900
26     H26    -4.0564    1.8860   -1.9578 H        1 ZINC000000001661    0.1200
27     H27    -6.1080    3.2422   -1.8661 H        1 ZINC000000001661    0.1300
28     H28    -8.1916    5.9652   -1.9275 H        1 ZINC000000001661    0.0900
29     H29    -7.3855    4.4136   -2.2610 H        1 ZINC000000001661    0.0900
30     H30    -7.5603    3.8075    0.1371 H        1 ZINC000000001661    0.0900
31     H31    -8.3663    5.3591    0.4705 H        1 ZINC000000001661    0.1000
32     H32    -7.1254    7.4613   -0.2350 H        1 ZINC000000001661    0.0900
33     H33    -5.3670    7.3048   -0.0071 H        1 ZINC000000001661    0.0900
34     H34    -5.0121    7.7909   -2.4126 H        1 ZINC000000001661    0.1000
35     H35    -6.7704    7.9474   -2.6405 H        1 ZINC000000001661    0.1000
36     H36    -3.8195    6.5947   -0.5186 H        1 ZINC000000001661    0.1300
37     H37    -1.7757    5.2265   -0.6039 H        1 ZINC000000001661    0.1300
@<TRIPOS>BOND
1     1     2     1
2     1     3     1
3     1     4     1
4     1     5     1
5     5     6     1
6     5     7     1
7     5     21    1
8     7     8     1
9     7     24    1
10    7     25    1
11    8     20    ar
12    8     9     ar
13    9     10    ar
14    9     26    1
15    10    11    ar
16    10    27    1
17    11    12    1
18    11    19    ar
19    12    13    1
20    12    16    1
21    13    14    1
22    13    28    1
23    13    29    1
24    14    15    1
25    14    30    1
26    14    31    1
27    16    17    1
28    16    32    1
29    16    33    1
30    17    18    1
31    17    34    1
32    17    35    1
33    19    20    ar
34    19    36    1
35    20    37    1
36    21    22    ar
37    21    23    ar
@<TRIPOS>SUBSTRUCTURE
1   ZINC000000001661 1     RESIDUE    1   A     ZIN   1
