@<TRIPOS>MOLECULE
ZINC000075550134
40    43    1     0     0
SMALL
USER_CHARGES
@<TRIPOS>ATOM
1      C1      0.1505    1.4368   -0.0112 C.3      1 ZINC000075550134    0.0700
2      N2     -0.0148   -0.0188   -0.0062 N.am     1 ZINC000075550134   -0.5600
3      C3     -0.1845   -0.6761   -1.1680 C.2      1 ZINC000075550134    0.5200
4      O4     -0.1844   -0.0584   -2.2119 O.2      1 ZINC000075550134   -0.5200
5      C5     -0.3740   -2.1690   -1.1871 C.3      1 ZINC000075550134   -0.1400
6      C6      0.4657   -2.8146   -0.0844 C.3      1 ZINC000075550134   -0.0800
7      C7      0.2375   -2.0862    1.2146 C.ar     1 ZINC000075550134   -0.1000
8      C8      0.2597   -2.7766    2.4091 C.ar     1 ZINC000075550134   -0.0800
9      C9      0.0486   -2.1018    3.6049 C.ar     1 ZINC000075550134    0.1300
10     N10     0.0715   -2.8016    4.8172 N.am     1 ZINC000075550134   -0.6600
11     C11     0.8932   -3.8590    4.9694 C.2      1 ZINC000075550134    0.6100
12     O12     1.6830   -4.1469    4.0905 O.2      1 ZINC000075550134   -0.5100
13     C13     0.8347   -4.6663    6.2009 C.2      1 ZINC000075550134    0.0000
14     N14     0.0339   -4.4806    7.2282 N.2      1 ZINC000075550134   -0.2000
15     N15     0.2250   -5.3533    8.1501 N.pl3    1 ZINC000075550134   -0.4100
16     C16     1.2141   -6.2358    7.8016 C.ar     1 ZINC000075550134    0.0600
17     C17     1.8008   -7.3390    8.4127 C.ar     1 ZINC000075550134   -0.1200
18     C18     2.8041   -8.0241    7.7643 C.ar     1 ZINC000075550134   -0.0800
19     C19     3.2373   -7.6261    6.5063 C.ar     1 ZINC000075550134   -0.1300
20     C20     2.6742   -6.5445    5.8878 C.ar     1 ZINC000075550134   -0.0500
21     C21     1.6547   -5.8421    6.5227 C.ar     1 ZINC000075550134   -0.1100
22     C22    -0.1847   -0.7328    3.5977 C.ar     1 ZINC000075550134   -0.1100
23     C23    -0.2065   -0.0423    2.4023 C.ar     1 ZINC000075550134   -0.1300
24     C24     0.0107   -0.7174    1.2068 C.ar     1 ZINC000075550134    0.1500
25     H25     1.2088    1.6820   -0.1005 H        1 ZINC000075550134    0.0700
26     H26    -0.3933    1.8614   -0.8551 H        1 ZINC000075550134    0.0900
27     H27    -0.2410    1.8502    0.9183 H        1 ZINC000075550134    0.0800
28     H28    -1.4262   -2.4024   -1.0245 H        1 ZINC000075550134    0.1000
29     H29    -0.0630   -2.5610   -2.1555 H        1 ZINC000075550134    0.1100
30     H30     0.1750   -3.8590    0.0289 H        1 ZINC000075550134    0.0900
31     H31     1.5209   -2.7586   -0.3517 H        1 ZINC000075550134    0.0900
32     H32     0.4408   -3.8413    2.4144 H        1 ZINC000075550134    0.1400
33     H33    -0.5040   -2.5255    5.5475 H        1 ZINC000075550134    0.4200
34     H34    -0.2669   -5.3840    8.9856 H        1 ZINC000075550134    0.4500
35     H35     1.4714   -7.6566    9.3910 H        1 ZINC000075550134    0.1300
36     H36     3.2594   -8.8804    8.2396 H        1 ZINC000075550134    0.1400
37     H37     4.0256   -8.1751    6.0128 H        1 ZINC000075550134    0.1300
38     H38     3.0158   -6.2398    4.9096 H        1 ZINC000075550134    0.1400
39     H39    -0.3496   -0.2084    4.5273 H        1 ZINC000075550134    0.1300
40     H40    -0.3883    1.0223    2.3968 H        1 ZINC000075550134    0.1400
@<TRIPOS>BOND
1     1     2     1
2     1     25    1
3     1     26    1
4     1     27    1
5     2     24    1
6     2     3     am
7     3     4     2
8     3     5     1
9     5     6     1
10    5     28    1
11    5     29    1
12    6     7     1
13    6     30    1
14    6     31    1
15    7     24    ar
16    7     8     ar
17    8     9     ar
18    8     32    1
19    9     10    1
20    9     22    ar
21    10    11    am
22    10    33    1
23    11    12    2
24    11    13    1
25    13    21    1
26    13    14    2
27    14    15    1
28    15    16    1
29    15    34    1
30    16    21    ar
31    16    17    ar
32    17    18    ar
33    17    35    1
34    18    19    ar
35    18    36    1
36    19    20    ar
37    19    37    1
38    20    21    ar
39    20    38    1
40    22    23    ar
41    22    39    1
42    23    24    ar
43    23    40    1
@<TRIPOS>SUBSTRUCTURE
1   ZINC000075550134 1     RESIDUE    1   A     ZIN   1
