@<TRIPOS>MOLECULE
ZINC000653691199
69    73    1     0     0
SMALL
USER_CHARGES
@<TRIPOS>ATOM
1      C1     -0.0173    1.4248    0.0099 C.3      1 ZINC000653691199    0.0600
2      O2      0.0021   -0.0041    0.0020 O.3      1 ZINC000653691199   -0.3200
3      C3     -1.1989   -0.6368    0.0101 C.ar     1 ZINC000653691199    0.2000
4      N4     -2.3117    0.0757    0.0190 N.ar     1 ZINC000653691199   -0.5000
5      C5     -3.5019   -0.4924    0.0267 C.ar     1 ZINC000653691199    0.0400
6      C6     -3.6302   -1.8782    0.0260 C.ar     1 ZINC000653691199   -0.1000
7      C7     -4.9726   -2.5088    0.0346 C.ar     1 ZINC000653691199    0.0100
8      C8     -5.0864   -3.9075    0.0397 C.ar     1 ZINC000653691199   -0.0900
9      C9     -6.3042   -4.5097    0.0472 C.ar     1 ZINC000653691199   -0.0900
10     C10    -7.4753   -3.7303    0.0505 C.ar     1 ZINC000653691199    0.1200
11     N11    -8.6827   -4.3031    0.0583 N.ar     1 ZINC000653691199   -0.4700
12     C12    -9.7917   -3.6057    0.0619 C.ar     1 ZINC000653691199    0.1200
13     C13    -9.8027   -2.2173    0.0580 C.ar     1 ZINC000653691199   -0.1500
14     C14    -8.5958   -1.5225    0.0498 C.ar     1 ZINC000653691199    0.0700
15     C15    -8.5588   -0.0910    0.0460 C.1      1 ZINC000653691199   -0.1300
16     C16    -8.5285    1.0826    0.0428 C.1      1 ZINC000653691199   -0.1300
17     C17    -8.4905    2.5541    0.0389 C.3      1 ZINC000653691199    0.1700
18     N18    -7.0933    3.0078    0.0303 N.3      1 ZINC000653691199   -0.5300
19     C19    -6.2916    2.2619    1.0095 C.3      1 ZINC000653691199    0.0400
20     C20    -4.8142    2.6337    0.8444 C.3      1 ZINC000653691199    0.1200
21     N21    -4.6890    4.0970    0.9237 N.am     1 ZINC000653691199   -1.0000
22     S22    -3.5955    4.8024    1.9479 S.o2     1 ZINC000653691199    2.6100
23     C23    -2.0840    4.9602    0.9573 C.3      1 ZINC000653691199   -0.6700
24     O24    -4.1477    6.0825    2.2225 O.2      1 ZINC000653691199   -0.9600
25     O25    -3.4160    3.8447    2.9823 O.2      1 ZINC000653691199   -0.9500
26     C26    -5.5605    4.9173    0.0687 C.3      1 ZINC000653691199    0.1200
27     C27    -7.0085    4.4556    0.2644 C.3      1 ZINC000653691199    0.0400
28     C28    -7.3664   -2.3175    0.0459 C.ar     1 ZINC000653691199   -0.0700
29     C29    -6.1067   -1.7139    0.0434 C.ar     1 ZINC000653691199   -0.1100
30     C30    -2.4755   -2.6686    0.0167 C.ar     1 ZINC000653691199   -0.1200
31     C31    -1.2432   -2.0326    0.0030 C.ar     1 ZINC000653691199    0.2400
32     N32    -0.0595   -2.7797   -0.0068 N.pl3    1 ZINC000653691199   -1.0900
33     S33     1.4061   -2.0088   -0.0230 S.o2     1 ZINC000653691199    2.6300
34     O34     1.4955   -1.3432   -1.2753 O.2      1 ZINC000653691199   -1.0100
35     O35     1.5200   -1.3371    1.2240 O.2      1 ZINC000653691199   -1.0000
36     C36     2.6511   -3.2556   -0.0322 C.ar     1 ZINC000653691199   -0.6800
37     C37     3.4901   -3.3858   -1.1224 C.ar     1 ZINC000653691199    0.0200
38     C38     4.4676   -4.3631   -1.1308 C.ar     1 ZINC000653691199   -0.1900
39     C39     4.6071   -5.2128   -0.0466 C.ar     1 ZINC000653691199    0.1600
40     F40     5.5628   -6.1676   -0.0548 F        1 ZINC000653691199   -0.1300
41     C41     3.7671   -5.0832    1.0462 C.ar     1 ZINC000653691199   -0.2200
42     C42     2.7922   -4.1009    1.0557 C.ar     1 ZINC000653691199    0.2300
43     F43     1.9718   -3.9734    2.1215 F        1 ZINC000653691199   -0.1100
44     H44     1.0053    1.8021    0.0021 H        1 ZINC000653691199    0.0800
45     H45    -0.5445    1.7859   -0.8732 H        1 ZINC000653691199    0.0500
46     H46    -0.5275    1.7763    0.9067 H        1 ZINC000653691199    0.0500
47     H47    -4.3878    0.1253    0.0339 H        1 ZINC000653691199    0.1400
48     H48    -4.1928   -4.5141    0.0372 H        1 ZINC000653691199    0.1400
49     H49    -6.3733   -5.5875    0.0502 H        1 ZINC000653691199    0.1400
50     H50   -10.7350   -4.1317    0.0679 H        1 ZINC000653691199    0.1600
51     H51   -10.7398   -1.6804    0.0609 H        1 ZINC000653691199    0.1400
52     H52    -8.9994    2.9283   -0.8494 H        1 ZINC000653691199    0.1100
53     H53    -8.9900    2.9328    0.9306 H        1 ZINC000653691199    0.0600
54     H54    -6.6201    2.5156    2.0174 H        1 ZINC000653691199    0.0400
55     H55    -6.4181    1.1920    0.8438 H        1 ZINC000653691199    0.0900
56     H56    -4.2294    2.1726    1.6404 H        1 ZINC000653691199    0.1000
57     H57    -4.4556    2.2875   -0.1249 H        1 ZINC000653691199    0.0800
58     H58    -2.2846    5.5824    0.0851 H        1 ZINC000653691199    0.1300
59     H59    -1.3012    5.4208    1.5599 H        1 ZINC000653691199    0.1300
60     H60    -1.7582    3.9723    0.6318 H        1 ZINC000653691199    0.1300
61     H61    -5.4692    5.9659    0.3518 H        1 ZINC000653691199    0.1000
62     H62    -5.2736    4.7906   -0.9752 H        1 ZINC000653691199    0.0800
63     H63    -7.6550    4.9766   -0.4418 H        1 ZINC000653691199    0.0900
64     H64    -7.3270    4.6787    1.2826 H        1 ZINC000653691199    0.0400
65     H65    -6.0180   -0.6375    0.0440 H        1 ZINC000653691199    0.1300
66     H66    -2.5423   -3.7465    0.0163 H        1 ZINC000653691199    0.1300
67     H67     3.3818   -2.7237   -1.9688 H        1 ZINC000653691199    0.1600
68     H68     5.1226   -4.4643   -1.9836 H        1 ZINC000653691199    0.1500
69     H69     3.8752   -5.7456    1.8924 H        1 ZINC000653691199    0.1500
@<TRIPOS>BOND
1     1     2     1
2     1     44    1
3     1     45    1
4     1     46    1
5     2     3     1
6     3     31    ar
7     3     4     ar
8     4     5     ar
9     5     6     ar
10    5     47    1
11    6     7     1
12    6     30    ar
13    7     29    ar
14    7     8     ar
15    8     9     ar
16    8     48    1
17    9     10    ar
18    9     49    1
19    10    28    ar
20    10    11    ar
21    11    12    ar
22    12    13    ar
23    12    50    1
24    13    14    ar
25    13    51    1
26    14    15    1
27    14    28    ar
28    15    16    3
29    16    17    1
30    17    18    1
31    17    52    1
32    17    53    1
33    18    27    1
34    18    19    1
35    19    20    1
36    19    54    1
37    19    55    1
38    20    21    1
39    20    56    1
40    20    57    1
41    21    22    am
42    21    26    1
43    22    23    1
44    22    24    2
45    22    25    2
46    23    58    1
47    23    59    1
48    23    60    1
49    26    27    1
50    26    61    1
51    26    62    1
52    27    63    1
53    27    64    1
54    28    29    ar
55    29    65    1
56    30    31    ar
57    30    66    1
58    31    32    1
59    32    33    1
60    33    34    2
61    33    35    2
62    33    36    1
63    36    42    ar
64    36    37    ar
65    37    38    ar
66    37    67    1
67    38    39    ar
68    38    68    1
69    39    40    1
70    39    41    ar
71    41    42    ar
72    41    69    1
73    42    43    1
@<TRIPOS>SUBSTRUCTURE
1   ZINC000653691199 1     RESIDUE    1   A     ZIN   1
