@<TRIPOS>MOLECULE
ZINC000044358737
79    85    1     0     0
SMALL
USER_CHARGES
@<TRIPOS>ATOM
1      C1     -2.4616   -1.4540    1.6291 C.2      1 ZINC000044358737   -0.0600
2      C2     -1.9408   -2.6760    1.7117 C.2      1 ZINC000044358737   -0.2300
3      C3     -2.6441   -3.9401    2.0301 C.2      1 ZINC000044358737    0.5100
4      O4     -3.8378   -4.0434    2.2342 O.2      1 ZINC000044358737   -0.4500
5      O5     -1.7558   -4.9656    2.0594 O.3      1 ZINC000044358737   -0.3400
6      C6     -0.6285   -4.5743    1.2166 C.3      1 ZINC000044358737    0.0900
7      H7     -0.9034   -4.7125    0.1709 H        1 ZINC000044358737    0.0900
8      C8      0.6289   -5.3358    1.4957 C.3      1 ZINC000044358737   -0.1100
9      C9      1.7156   -5.0618    0.4729 C.3      1 ZINC000044358737   -0.0600
10     H10     2.4432   -5.8723    0.5158 H        1 ZINC000044358737    0.0800
11     C11     1.0811   -5.0545   -0.9193 C.3      1 ZINC000044358737   -0.1700
12     C12     2.4314   -3.7751    0.6680 C.3      1 ZINC000044358737   -0.0100
13     C13     3.1187   -3.5352    2.0269 C.3      1 ZINC000044358737   -0.0900
14     C14     4.1198   -2.4160    1.6894 C.3      1 ZINC000044358737   -0.1100
15     C15     3.8804   -1.1704    2.4883 C.2      1 ZINC000044358737    0.4900
16     O16     2.8495   -0.5406    2.5117 O.2      1 ZINC000044358737   -0.4300
17     O17     4.9999   -0.8650    3.1777 O.3      1 ZINC000044358737   -0.3300
18     C18     6.1396   -1.5189    2.5477 C.3      1 ZINC000044358737    0.0900
19     H19     6.5205   -0.8984    1.7366 H        1 ZINC000044358737    0.0900
20     C20     7.2454   -1.7894    3.5526 C.3      1 ZINC000044358737   -0.1100
21     C21     6.6964   -2.6078    4.7254 C.3      1 ZINC000044358737   -0.0100
22     C22     5.6025   -1.7952    5.4212 C.3      1 ZINC000044358737   -0.1200
23     C23     6.0765   -3.8676    4.2024 C.2      1 ZINC000044358737   -0.0700
24     C24     5.6010   -3.9346    2.9895 C.2      1 ZINC000044358737   -0.1600
25     C25     5.5689   -2.8321    1.9781 C.3      1 ZINC000044358737   -0.0700
26     H26     6.0791   -3.1304    1.0622 H        1 ZINC000044358737    0.1200
27     C27     5.9610   -5.1025    5.0643 C.3      1 ZINC000044358737   -0.0600
28     H28     5.8291   -5.9769    4.4270 H        1 ZINC000044358737    0.0800
29     C29     4.7516   -4.9631    5.9910 C.3      1 ZINC000044358737   -0.1500
30     C30     7.2227   -5.2754    5.9058 C.3      1 ZINC000044358737   -0.1100
31     C31     7.4724   -3.9848    6.6898 C.3      1 ZINC000044358737   -0.1600
32     C32     7.8196   -2.8653    5.7175 C.3      1 ZINC000044358737    0.1200
33     H33     8.7215   -3.1383    5.1695 H        1 ZINC000044358737    0.0500
34     O34     8.0692   -1.6680    6.4565 O.3      1 ZINC000044358737   -0.5600
35     C35     3.9343   -2.1570    0.1693 C.3      1 ZINC000044358737   -0.0600
36     H36     4.7420   -1.6234   -0.3318 H        1 ZINC000044358737    0.1100
37     C37     2.5318   -1.5492    0.0380 C.2      1 ZINC000044358737   -0.1100
38     C38     2.2210   -0.1306   -0.3646 C.3      1 ZINC000044358737   -0.0900
39     C39     1.6408   -2.5216    0.3329 C.2      1 ZINC000044358737   -0.1200
40     C40     0.1650   -2.3178    0.3932 C.3      1 ZINC000044358737   -0.0500
41     C41    -0.4937   -3.0853    1.4939 C.3      1 ZINC000044358737   -0.0800
42     H42     0.0576   -2.9306    2.4213 H        1 ZINC000044358737    0.1000
43     C43     3.6387   -3.6265   -0.3240 C.3      1 ZINC000044358737    0.0900
44     H44     4.4528   -4.3170   -0.1038 H        1 ZINC000044358737    0.1100
45     O45     3.2336   -3.6805   -1.7173 O.3      1 ZINC000044358737   -0.3200
46     C46     4.2045   -3.8533   -2.6279 C.2      1 ZINC000044358737    0.4600
47     C47     3.8600   -3.9191   -4.0935 C.3      1 ZINC000044358737   -0.1500
48     O48     5.3548   -3.9561   -2.2726 O.2      1 ZINC000044358737   -0.5100
49     H49    -1.8302   -0.6136    1.3813 H        1 ZINC000044358737    0.1300
50     H50    -3.5164   -1.3036    1.8054 H        1 ZINC000044358737    0.1200
51     H51     0.9969   -5.0585    2.4835 H        1 ZINC000044358737    0.0800
52     H52     0.4031   -6.4021    1.4927 H        1 ZINC000044358737    0.0900
53     H53     0.4604   -4.1655   -1.0311 H        1 ZINC000044358737    0.0700
54     H54     1.8656   -5.0475   -1.6761 H        1 ZINC000044358737    0.0800
55     H55     0.4653   -5.9454   -1.0426 H        1 ZINC000044358737    0.0600
56     H56     2.3981   -3.1997    2.7728 H        1 ZINC000044358737    0.0900
57     H57     3.6381   -4.4325    2.3633 H        1 ZINC000044358737    0.1000
58     H58     8.0475   -2.3456    3.0673 H        1 ZINC000044358737    0.0900
59     H59     7.6368   -0.8423    3.9239 H        1 ZINC000044358737    0.0900
60     H60     4.6932   -1.8211    4.8209 H        1 ZINC000044358737    0.0600
61     H61     5.4017   -2.2227    6.4036 H        1 ZINC000044358737    0.0500
62     H62     5.9335   -0.7629    5.5350 H        1 ZINC000044358737    0.0700
63     H63     5.1874   -4.8839    2.6826 H        1 ZINC000044358737    0.1100
64     H64     3.8471   -4.8501    5.3934 H        1 ZINC000044358737    0.0600
65     H65     4.6666   -5.8536    6.6139 H        1 ZINC000044358737    0.0600
66     H66     4.8795   -4.0864    6.6259 H        1 ZINC000044358737    0.0600
67     H67     7.0879   -6.1046    6.6003 H        1 ZINC000044358737    0.0700
68     H68     8.0723   -5.4768    5.2534 H        1 ZINC000044358737    0.0700
69     H69     6.5743   -3.7177    7.2467 H        1 ZINC000044358737    0.0800
70     H70     8.3002   -4.1345    7.3831 H        1 ZINC000044358737    0.0700
71     H71     8.7984   -1.7400    7.0876 H        1 ZINC000044358737    0.3800
72     H72     2.1141   -0.0754   -1.4479 H        1 ZINC000044358737    0.0700
73     H73     1.2917    0.1861    0.1088 H        1 ZINC000044358737    0.0700
74     H74     3.0325    0.5236   -0.0458 H        1 ZINC000044358737    0.0600
75     H75    -0.0349   -1.2581    0.5520 H        1 ZINC000044358737    0.0800
76     H76    -0.2675   -2.6123   -0.5631 H        1 ZINC000044358737    0.0800
77     H77     3.8903   -2.9162   -4.5193 H        1 ZINC000044358737    0.1100
78     H78     4.5810   -4.5543   -4.6081 H        1 ZINC000044358737    0.1000
79     H79     2.8594   -4.3345   -4.2132 H        1 ZINC000044358737    0.0900
@<TRIPOS>BOND
1     1     2     2
2     1     49    1
3     1     50    1
4     2     41    1
5     2     3     1
6     3     4     2
7     3     5     1
8     5     6     1
9     6     7     1
10    6     41    1
11    6     8     1
12    8     9     1
13    8     51    1
14    8     52    1
15    9     10    1
16    9     11    1
17    9     12    1
18    11    53    1
19    11    54    1
20    11    55    1
21    12    39    1
22    12    43    1
23    12    13    1
24    13    14    1
25    13    56    1
26    13    57    1
27    14    25    1
28    14    15    1
29    14    35    1
30    15    16    2
31    15    17    1
32    17    18    1
33    18    19    1
34    18    25    1
35    18    20    1
36    20    21    1
37    20    58    1
38    20    59    1
39    21    32    1
40    21    22    1
41    21    23    1
42    22    60    1
43    22    61    1
44    22    62    1
45    23    24    2
46    23    27    1
47    24    25    1
48    24    63    1
49    25    26    1
50    27    28    1
51    27    29    1
52    27    30    1
53    29    64    1
54    29    65    1
55    29    66    1
56    30    31    1
57    30    67    1
58    30    68    1
59    31    32    1
60    31    69    1
61    31    70    1
62    32    33    1
63    32    34    1
64    34    71    1
65    35    36    1
66    35    37    1
67    35    43    1
68    37    38    1
69    37    39    2
70    38    72    1
71    38    73    1
72    38    74    1
73    39    40    1
74    40    41    1
75    40    75    1
76    40    76    1
77    41    42    1
78    43    44    1
79    43    45    1
80    45    46    1
81    46    47    1
82    46    48    2
83    47    77    1
84    47    78    1
85    47    79    1
@<TRIPOS>SUBSTRUCTURE
1   ZINC000044358737 1     RESIDUE    1   A     ZIN   1
