@<TRIPOS>MOLECULE
ZINC000072110046
55    58    1     0     0
SMALL
USER_CHARGES
@<TRIPOS>ATOM
1      C1     -0.6669    1.3625    0.4535 C.3      1 ZINC000072110046   -0.1300
2      C2     -0.5467   -0.1383    0.3897 C.ar     1 ZINC000072110046   -0.0200
3      C3     -0.5646   -0.7818   -0.8337 C.ar     1 ZINC000072110046   -0.1400
4      C4     -0.4544   -2.1585   -0.8922 C.ar     1 ZINC000072110046   -0.0100
5      C5     -0.3259   -2.8917    0.2726 C.ar     1 ZINC000072110046   -0.7100
6      S6     -0.1860   -4.6466    0.1980 S.o2     1 ZINC000072110046    2.6700
7      O7     -0.6189   -5.1376    1.4593 O.2      1 ZINC000072110046   -0.9300
8      O8     -0.7727   -5.0439   -1.0337 O.2      1 ZINC000072110046   -0.9100
9      O9      1.2962   -4.9764    0.0942 O.3      1 ZINC000072110046   -0.6500
10     C10     1.9779   -4.8278    1.2589 C.ar     1 ZINC000072110046    0.1600
11     C11     2.5547   -3.6049    1.5700 C.ar     1 ZINC000072110046   -0.2100
12     C12     3.2504   -3.4480    2.7554 C.ar     1 ZINC000072110046    0.2000
13     O13     3.8150   -2.2521    3.0607 O.3      1 ZINC000072110046   -0.2900
14     C14     3.6519   -1.1965    2.1114 C.3      1 ZINC000072110046    0.0900
15     C15     4.3405    0.0448    2.6172 C.ar     1 ZINC000072110046   -0.0700
16     C16     3.6483    0.9481    3.4019 C.ar     1 ZINC000072110046   -0.0900
17     C17     4.2800    2.0868    3.8659 C.ar     1 ZINC000072110046   -0.0700
18     C18     5.6040    2.3219    3.5457 C.ar     1 ZINC000072110046   -0.1700
19     C19     6.2925    3.5635    4.0511 C.3      1 ZINC000072110046    0.5100
20     F20     6.8832    3.2972    5.2910 F        1 ZINC000072110046   -0.1700
21     F21     7.2788    3.9539    3.1390 F        1 ZINC000072110046   -0.1700
22     F22     5.3547    4.5920    4.1926 F        1 ZINC000072110046   -0.1800
23     C23     6.2966    1.4179    2.7621 C.ar     1 ZINC000072110046   -0.0700
24     C24     5.6661    0.2773    2.3013 C.ar     1 ZINC000072110046   -0.0900
25     C25     3.3700   -4.5317    3.6429 C.ar     1 ZINC000072110046   -0.1000
26     C26     4.1048   -4.3751    4.9017 C.2      1 ZINC000072110046    0.0800
27     C27     4.5503   -5.4717    5.5693 C.2      1 ZINC000072110046   -0.2300
28     S28     4.5449   -7.1600    5.0218 S.3      1 ZINC000072110046    0.0000
29     C29     5.2838   -7.7911    6.5040 C.2      1 ZINC000072110046    0.5200
30     O30     5.5505   -8.9536    6.7427 O.2      1 ZINC000072110046   -0.4200
31     N31     5.4920   -6.7435    7.3100 N.am     1 ZINC000072110046   -0.6700
32     C32     5.1515   -5.5317    6.9040 C.2      1 ZINC000072110046    0.5700
33     O33     5.3162   -4.5411    7.5922 O.2      1 ZINC000072110046   -0.4600
34     C34     2.7830   -5.7620    3.3186 C.ar     1 ZINC000072110046   -0.0200
35     C35     2.0899   -5.9019    2.1381 C.ar     1 ZINC000072110046   -0.1100
36     Br36    1.2982   -7.5628    1.7016 Br       1 ZINC000072110046    0.0000
37     C37    -0.3066   -2.2482    1.4958 C.ar     1 ZINC000072110046   -0.0100
38     C38    -0.4130   -0.8711    1.5541 C.ar     1 ZINC000072110046   -0.1500
39     H39     0.3263    1.8089    0.4047 H        1 ZINC000072110046    0.0800
40     H40    -1.2654    1.7151   -0.3865 H        1 ZINC000072110046    0.0800
41     H41    -1.1484    1.6490    1.3884 H        1 ZINC000072110046    0.0800
42     H42    -0.6650   -0.2089   -1.7437 H        1 ZINC000072110046    0.1400
43     H43    -0.4691   -2.6612   -1.8479 H        1 ZINC000072110046    0.1400
44     H44     2.4607   -2.7746    0.8857 H        1 ZINC000072110046    0.1600
45     H45     4.0913   -1.4933    1.1590 H        1 ZINC000072110046    0.0900
46     H46     2.5901   -0.9925    1.9738 H        1 ZINC000072110046    0.0900
47     H47     2.6139    0.7645    3.6522 H        1 ZINC000072110046    0.1400
48     H48     3.7390    2.7929    4.4784 H        1 ZINC000072110046    0.1400
49     H49     7.3312    1.6014    2.5122 H        1 ZINC000072110046    0.1400
50     H50     6.2072   -0.4290    1.6891 H        1 ZINC000072110046    0.1400
51     H51     4.2921   -3.3883    5.2986 H        1 ZINC000072110046    0.1700
52     H52     5.8935   -6.8713    8.1837 H        1 ZINC000072110046    0.4300
53     H53     2.8716   -6.5985    3.9960 H        1 ZINC000072110046    0.1700
54     H54    -0.2059   -2.8210    2.4058 H        1 ZINC000072110046    0.1400
55     H55    -0.3979   -0.3684    2.5098 H        1 ZINC000072110046    0.1400
@<TRIPOS>BOND
1     1     2     1
2     1     39    1
3     1     40    1
4     1     41    1
5     2     38    ar
6     2     3     ar
7     3     4     ar
8     3     42    1
9     4     5     ar
10    4     43    1
11    5     6     1
12    5     37    ar
13    6     7     2
14    6     8     2
15    6     9     1
16    9     10    1
17    10    35    ar
18    10    11    ar
19    11    12    ar
20    11    44    1
21    12    13    1
22    12    25    ar
23    13    14    1
24    14    15    1
25    14    45    1
26    14    46    1
27    15    24    ar
28    15    16    ar
29    16    17    ar
30    16    47    1
31    17    18    ar
32    17    48    1
33    18    19    1
34    18    23    ar
35    19    20    1
36    19    21    1
37    19    22    1
38    23    24    ar
39    23    49    1
40    24    50    1
41    25    26    1
42    25    34    ar
43    26    27    2
44    26    51    1
45    27    32    1
46    27    28    1
47    28    29    1
48    29    30    2
49    29    31    am
50    31    32    am
51    31    52    1
52    32    33    2
53    34    35    ar
54    34    53    1
55    35    36    1
56    37    38    ar
57    37    54    1
58    38    55    1
@<TRIPOS>SUBSTRUCTURE
1   ZINC000072110046 1     RESIDUE    1   A     ZIN   1
