@<TRIPOS>MOLECULE
ZINC000040979326
58    61    1     0     0
SMALL
USER_CHARGES
@<TRIPOS>ATOM
1      C1      0.0305    0.4269    0.2584 C.3      1 ZINC000040979326   -0.1500
2      C2      0.2925   -1.0673    0.0594 C.3      1 ZINC000040979326   -0.1300
3      C3      1.0119   -1.2858   -1.2731 C.3      1 ZINC000040979326    0.1700
4      H4      0.4308   -0.8355   -2.0779 H        1 ZINC000040979326    0.1000
5      C5      1.1630   -2.7864   -1.5311 C.3      1 ZINC000040979326    0.0600
6      O6      1.8232   -3.3965   -0.4203 O.3      1 ZINC000040979326   -0.5700
7      N7      2.3372   -0.6636   -1.2204 N.pl3    1 ZINC000040979326   -0.6800
8      C8      2.9620   -0.2646   -2.3906 C.ar     1 ZINC000040979326    0.6300
9      N9      2.3376   -0.4519   -3.5461 N.ar     1 ZINC000040979326   -0.6100
10     C10     2.8952   -0.0859   -4.6951 C.ar     1 ZINC000040979326    0.5300
11     N11     2.2357   -0.2849   -5.8962 N.pl3    1 ZINC000040979326   -0.6400
12     C12     0.9232   -0.7662   -5.9016 C.ar     1 ZINC000040979326    0.1500
13     C13     0.0269   -0.3519   -4.9238 C.ar     1 ZINC000040979326   -0.1000
14     C14    -1.2715   -0.8257   -4.9259 C.ar     1 ZINC000040979326   -0.1000
15     C15    -1.6852   -1.7133   -5.8988 C.ar     1 ZINC000040979326   -0.1100
16     C16    -0.7929   -2.1345   -6.8838 C.ar     1 ZINC000040979326   -0.0300
17     C17    -1.2363   -3.0879   -7.9304 C.ar     1 ZINC000040979326    0.1700
18     C18    -2.5731   -3.4746   -7.9909 C.ar     1 ZINC000040979326   -0.1600
19     C19    -2.9721   -4.3647   -8.9734 C.ar     1 ZINC000040979326   -0.0700
20     C20    -2.0196   -4.8390   -9.8637 C.ar     1 ZINC000040979326   -0.1800
21     C21    -0.7092   -4.4128   -9.7456 C.ar     1 ZINC000040979326    0.1100
22     N22    -0.3573   -3.5610   -8.8044 N.ar     1 ZINC000040979326   -0.4800
23     C23     0.5134   -1.6532   -6.8863 C.ar     1 ZINC000040979326   -0.1000
24     C24     4.1686    0.5081   -4.6652 C.ar     1 ZINC000040979326   -0.1500
25     N25     5.0154    0.9908   -5.6075 N.2      1 ZINC000040979326   -0.4600
26     C26     6.0913    1.4425   -5.0322 C.2      1 ZINC000040979326    0.2400
27     N27     6.0014    1.2772   -3.6809 N.pl3    1 ZINC000040979326   -0.4700
28     C28     7.0116    1.6604   -2.6915 C.3      1 ZINC000040979326    0.1300
29     C29     8.3154    0.9128   -2.9781 C.3      1 ZINC000040979326   -0.1600
30     C30     7.2595    3.1679   -2.7733 C.3      1 ZINC000040979326   -0.1600
31     C31     4.7913    0.6863   -3.4186 C.ar     1 ZINC000040979326    0.3500
32     N32     4.1589    0.2950   -2.3169 N.ar     1 ZINC000040979326   -0.6100
33     H33     0.9787    0.9644    0.2650 H        1 ZINC000040979326    0.0600
34     H34    -0.5920    0.7982   -0.5557 H        1 ZINC000040979326    0.0500
35     H35    -0.4820    0.5826    1.2077 H        1 ZINC000040979326    0.0600
36     H36     0.9150   -1.4386    0.8735 H        1 ZINC000040979326    0.0800
37     H37    -0.6557   -1.6048    0.0528 H        1 ZINC000040979326    0.0800
38     H38     0.1774   -3.2341   -1.6586 H        1 ZINC000040979326    0.0500
39     H39     1.7525   -2.9422   -2.4346 H        1 ZINC000040979326    0.0500
40     H40     1.9531   -4.3500   -0.5153 H        1 ZINC000040979326    0.3800
41     H41     2.7771   -0.5309   -0.3662 H        1 ZINC000040979326    0.4200
42     H42     2.6844   -0.0904   -6.7339 H        1 ZINC000040979326    0.4300
43     H43     0.3458    0.3418   -4.1600 H        1 ZINC000040979326    0.1300
44     H44    -1.9643   -0.5008   -4.1638 H        1 ZINC000040979326    0.1300
45     H45    -2.7004   -2.0819   -5.8968 H        1 ZINC000040979326    0.1300
46     H46    -3.2883   -3.0858   -7.2811 H        1 ZINC000040979326    0.1400
47     H47    -4.0016   -4.6830   -9.0449 H        1 ZINC000040979326    0.1400
48     H48    -2.2986   -5.5346  -10.6412 H        1 ZINC000040979326    0.1400
49     H49     0.0347   -4.7801  -10.4370 H        1 ZINC000040979326    0.1600
50     H50     1.2082   -1.9763   -7.6475 H        1 ZINC000040979326    0.1400
51     H51     6.9316    1.8830   -5.5482 H        1 ZINC000040979326    0.2200
52     H52     6.6578    1.4040   -1.6929 H        1 ZINC000040979326    0.1100
53     H53     8.1388   -0.1612   -2.9198 H        1 ZINC000040979326    0.0600
54     H54     8.6693    1.1692   -3.9767 H        1 ZINC000040979326    0.0700
55     H55     9.0671    1.1979   -2.2420 H        1 ZINC000040979326    0.0800
56     H56     6.3306    3.7005   -2.5692 H        1 ZINC000040979326    0.0600
57     H57     8.0111    3.4530   -2.0372 H        1 ZINC000040979326    0.0800
58     H58     7.6134    3.4243   -3.7719 H        1 ZINC000040979326    0.0700
@<TRIPOS>BOND
1     1     2     1
2     1     33    1
3     1     34    1
4     1     35    1
5     2     3     1
6     2     36    1
7     2     37    1
8     3     4     1
9     3     5     1
10    3     7     1
11    5     6     1
12    5     38    1
13    5     39    1
14    6     40    1
15    7     8     1
16    7     41    1
17    8     32    ar
18    8     9     ar
19    9     10    ar
20    10    11    1
21    10    24    ar
22    11    12    1
23    11    42    1
24    12    23    ar
25    12    13    ar
26    13    14    ar
27    13    43    1
28    14    15    ar
29    14    44    1
30    15    16    ar
31    15    45    1
32    16    17    1
33    16    23    ar
34    17    22    ar
35    17    18    ar
36    18    19    ar
37    18    46    1
38    19    20    ar
39    19    47    1
40    20    21    ar
41    20    48    1
42    21    22    ar
43    21    49    1
44    23    50    1
45    24    31    ar
46    24    25    1
47    25    26    2
48    26    27    1
49    26    51    1
50    27    28    1
51    27    31    1
52    28    29    1
53    28    30    1
54    28    52    1
55    29    53    1
56    29    54    1
57    29    55    1
58    30    56    1
59    30    57    1
60    30    58    1
61    31    32    ar
@<TRIPOS>SUBSTRUCTURE
1   ZINC000040979326 1     RESIDUE    1   A     ZIN   1
