@<TRIPOS>MOLECULE
ZINC000001237385
  49   52    0    0    0
SMALL
USER_CHARGES
NO_NAME
@<TRIPOS>ATOM
    1 C1       -0.2295     1.4957     0.0886 C.3    1 <0>      -0.1200
    2 C2       -0.1631    -0.0096     0.0633 C.ar   1 <0>      -0.0600
    3 C3        0.6149    -0.6804     0.9902 C.ar   1 <0>      -0.1200
    4 C4        0.6804    -2.0583     0.9723 C.ar   1 <0>      -0.1000
    5 C5       -0.0407    -2.7758     0.0164 C.ar   1 <0>      -0.0300
    6 C6        0.0244    -4.2522    -0.0084 C.2    1 <0>       0.2400
    7 N7       -0.3111    -5.0316    -1.0103 N.2    1 <0>      -0.2600
    8 N8       -0.1293    -6.2626    -0.6901 N.2    1 <0>      -0.2800
    9 C9        0.3340    -6.3473     0.5372 C.2    1 <0>       0.1500
   10 S10       0.7329    -7.8284     1.4043 S.3    1 <0>       0.0700
   11 C11       0.3204    -9.0545     0.1384 C.3    1 <0>      -0.1700
   12 C12       0.5896   -10.4378     0.6723 C.2    1 <0>       0.4200
   13 O13       1.0182   -10.5807     1.7979 O.2    1 <0>      -0.4300
   14 C14       0.3330   -11.6129    -0.1704 C.ar   1 <0>      -0.1600
   15 C15      -0.1562   -11.4502    -1.4717 C.ar   1 <0>      -0.0600
   16 C16      -0.3960   -12.5539    -2.2597 C.ar   1 <0>      -0.1400
   17 C17      -0.1537   -13.8295    -1.7669 C.ar   1 <0>       0.1200
   18 O18      -0.3921   -14.9135    -2.5485 O.3    1 <0>      -0.4900
   19 C19       0.3343   -14.0001    -0.4710 C.ar   1 <0>       0.0700
   20 O20       0.5710   -15.2511     0.0071 O.3    1 <0>      -0.4800
   21 C21       0.5825   -12.8997     0.3238 C.ar   1 <0>      -0.0700
   22 N22       0.4542    -5.0705     1.0134 N.pl3  1 <0>      -0.4200
   23 C23       0.9107    -4.6772     2.2794 C.ar   1 <0>       0.1000
   24 C24       0.0317    -4.1040     3.1883 C.ar   1 <0>      -0.0800
   25 C25       0.4837    -3.7174     4.4348 C.ar   1 <0>      -0.1000
   26 C26       1.8117    -3.9011     4.7781 C.ar   1 <0>      -0.0200
   27 Cl27      2.3768    -3.4147     6.3458 Cl     1 <0>      -0.0500
   28 C28       2.6898    -4.4723     3.8738 C.ar   1 <0>      -0.0900
   29 C29       2.2412    -4.8657     2.6282 C.ar   1 <0>      -0.0900
   30 C30      -0.8240    -2.0929    -0.9155 C.ar   1 <0>      -0.0700
   31 C31      -0.8848    -0.7150    -0.8833 C.ar   1 <0>      -0.1200
   32 H32      -1.0450     1.8125     0.7387 H      1 <0>       0.0800
   33 H33       0.7120     1.8946     0.4662 H      1 <0>       0.0700
   34 H34      -0.4035     1.8687    -0.9207 H      1 <0>       0.0700
   35 H35       1.1723    -0.1241     1.7292 H      1 <0>       0.1300
   36 H36       1.2886    -2.5806     1.6960 H      1 <0>       0.1200
   37 H37      -0.7338    -8.9652    -0.1241 H      1 <0>       0.1400
   38 H38       0.9313    -8.8817    -0.7476 H      1 <0>       0.1400
   39 H39      -0.3459   -10.4595    -1.8575 H      1 <0>       0.1400
   40 H40      -0.7738   -12.4271    -3.2635 H      1 <0>       0.1400
   41 H41       0.3666   -15.1887    -3.0812 H      1 <0>       0.4000
   42 H42       1.4670   -15.5735    -0.1612 H      1 <0>       0.3900
   43 H43       0.9607   -13.0305     1.3269 H      1 <0>       0.1500
   44 H44      -1.0047    -3.9601     2.9207 H      1 <0>       0.1400
   45 H45      -0.1996    -3.2711     5.1420 H      1 <0>       0.1500
   46 H46       3.7257    -4.6147     4.1440 H      1 <0>       0.1500
   47 H47       2.9268    -5.3115     1.9228 H      1 <0>       0.1400
   48 H48      -1.3841    -2.6421    -1.6579 H      1 <0>       0.1400
   49 H49      -1.4904    -0.1854    -1.6038 H      1 <0>       0.1300
@<TRIPOS>BOND
   1    1    2 1
   2    1   32 1
   3    1   33 1
   4    1   34 1
   5    2   31 ar
   6    2    3 ar
   7    3    4 ar
   8    3   35 1
   9    4    5 ar
  10    4   36 1
  11    5    6 1
  12    5   30 ar
  13    6   22 1
  14    6    7 2
  15    7    8 1
  16    8    9 2
  17    9   10 1
  18    9   22 1
  19   10   11 1
  20   11   12 1
  21   11   37 1
  22   11   38 1
  23   12   13 2
  24   12   14 1
  25   14   21 ar
  26   14   15 ar
  27   15   16 ar
  28   15   39 1
  29   16   17 ar
  30   16   40 1
  31   17   18 1
  32   17   19 ar
  33   18   41 1
  34   19   20 1
  35   19   21 ar
  36   20   42 1
  37   21   43 1
  38   22   23 1
  39   23   29 ar
  40   23   24 ar
  41   24   25 ar
  42   24   44 1
  43   25   26 ar
  44   25   45 1
  45   26   27 1
  46   26   28 ar
  47   28   29 ar
  48   28   46 1
  49   29   47 1
  50   30   31 ar
  51   30   48 1
  52   31   49 1
