@<TRIPOS>MOLECULE
ZINC000028455256
  39   42    0    0    0
SMALL
USER_CHARGES
NO_NAME
@<TRIPOS>ATOM
    1 O1        0.0025    -0.0038     0.0078 O.2    1 <0>      -0.5000
    2 C2       -0.0143     1.2119     0.0058 C.2    1 <0>       0.7000
    3 N3        1.1433     1.9018    -0.0142 N.am   1 <0>      -0.6400
    4 C4        2.3563     1.2235    -0.0325 C.2    1 <0>       0.2700
    5 N5        2.4858    -0.0663    -0.0377 N.2    1 <0>      -0.4700
    6 C6        3.7168    -0.5431    -0.0561 C.2    1 <0>       0.0700
    7 C7        4.6722     0.3879    -0.0669 C.2    1 <0>      -0.2200
    8 C8        6.1572     0.1320    -0.0883 C.3    1 <0>      -0.0300
    9 C9        6.9421     1.1314    -0.9543 C.3    1 <0>      -0.1400
   10 C10       8.0176     1.1186     0.1448 C.3    1 <0>      -0.1400
   11 C11       6.9008     0.7184     1.1233 C.3    1 <0>      -0.1300
   12 S12       3.8948     1.9688    -0.0587 S.3    1 <0>       0.1400
   13 N13      -1.1906     1.8696     0.0179 N.am   1 <0>      -0.6700
   14 C14      -2.3873     1.1604    -0.0856 C.ar   1 <0>       0.1900
   15 C15      -3.5840     1.7036     0.4240 C.ar   1 <0>      -0.1300
   16 C16      -3.6253     2.9588     1.0469 C.ar   1 <0>       0.1400
   17 N17      -4.7638     3.4246     1.5064 N.ar   1 <0>      -0.4900
   18 C18      -5.9042     2.7545     1.4102 C.ar   1 <0>       0.0800
   19 C19      -5.9697     1.5278     0.8230 C.ar   1 <0>      -0.1500
   20 C20      -4.7887     0.9627     0.3062 C.ar   1 <0>       0.0000
   21 C21      -4.7725    -0.2943    -0.3130 C.ar   1 <0>      -0.1300
   22 C22      -3.6008    -0.7958    -0.7972 C.ar   1 <0>      -0.0700
   23 C23      -2.4139    -0.0780    -0.6930 C.ar   1 <0>      -0.1400
   24 H24       1.1299     2.8717    -0.0158 H      1 <0>       0.4200
   25 H25       3.9328    -1.6013    -0.0617 H      1 <0>       0.1800
   26 H26       6.4042    -0.9104    -0.2896 H      1 <0>       0.1100
   27 H27       7.2819     0.7147    -1.9025 H      1 <0>       0.0800
   28 H28       6.4454     2.0949    -1.0680 H      1 <0>       0.0800
   29 H29       8.7743     0.3464     0.0063 H      1 <0>       0.0900
   30 H30       8.4455     2.1003     0.3484 H      1 <0>       0.0700
   31 H31       6.3928     1.5690     1.5777 H      1 <0>       0.0800
   32 H32       7.2073    -0.0317     1.8524 H      1 <0>       0.0700
   33 H33      -1.2051     2.8361     0.0985 H      1 <0>       0.4100
   34 H34      -2.7219     3.5418     1.1490 H      1 <0>       0.1500
   35 H35      -6.8064     3.1941     1.8093 H      1 <0>       0.1600
   36 H36      -6.9089     0.9989     0.7555 H      1 <0>       0.1400
   37 H37      -5.6852    -0.8641    -0.4061 H      1 <0>       0.1300
   38 H38      -3.5948    -1.7653    -1.2730 H      1 <0>       0.1300
   39 H39      -1.5001    -0.4990    -1.0855 H      1 <0>       0.1500
@<TRIPOS>BOND
   1    1    2 2
   2    2    3 am
   3    2   13 am
   4    3    4 1
   5    3   24 1
   6    4   12 1
   7    4    5 2
   8    5    6 1
   9    6    7 2
  10    6   25 1
  11    7    8 1
  12    7   12 1
  13    8   11 1
  14    8    9 1
  15    8   26 1
  16    9   10 1
  17    9   27 1
  18    9   28 1
  19   10   11 1
  20   10   29 1
  21   10   30 1
  22   11   31 1
  23   11   32 1
  24   13   14 1
  25   13   33 1
  26   14   23 ar
  27   14   15 ar
  28   15   20 ar
  29   15   16 ar
  30   16   17 ar
  31   16   34 1
  32   17   18 ar
  33   18   19 ar
  34   18   35 1
  35   19   20 ar
  36   19   36 1
  37   20   21 ar
  38   21   22 ar
  39   21   37 1
  40   22   23 ar
  41   22   38 1
  42   23   39 1
