@<TRIPOS>MOLECULE
ZINC000001651126
39    40    1     0     0
SMALL
USER_CHARGES
@<TRIPOS>ATOM
1      O1      0.0021   -0.0041    0.0020 O.2      1 ZINC000001651126   -0.4300
2      C2     -0.0144    1.2105    0.0087 C.2      1 ZINC000001651126    0.3700
3      C3      1.1952    1.9310    0.0010 C.2      1 ZINC000001651126   -0.2500
4      C4      2.3781    1.2692   -0.0138 C.2      1 ZINC000001651126    0.0000
5      C5      3.6392    2.0204   -0.0218 C.ar     1 ZINC000001651126   -0.1000
6      C6      3.6232    3.4211   -0.0083 C.ar     1 ZINC000001651126   -0.0800
7      C7      4.8084    4.1203   -0.0154 C.ar     1 ZINC000001651126   -0.1500
8      C8      6.0205    3.4388   -0.0360 C.ar     1 ZINC000001651126    0.1200
9      O9      7.1864    4.1333   -0.0425 O.3      1 ZINC000001651126   -0.5000
10     C10     6.0423    2.0484   -0.0495 C.ar     1 ZINC000001651126   -0.1500
11     C11     4.8632    1.3391   -0.0372 C.ar     1 ZINC000001651126   -0.0700
12     C12    -1.3296    1.9462    0.0189 C.3      1 ZINC000001651126   -0.2200
13     C13    -2.4616    0.9514    0.0189 C.2      1 ZINC000001651126    0.3700
14     O14    -2.2235   -0.2397    0.0113 O.2      1 ZINC000001651126   -0.4300
15     C15    -3.7952    1.4026    0.0277 C.2      1 ZINC000001651126   -0.2500
16     C16    -4.8135    0.5078    0.0276 C.2      1 ZINC000001651126    0.0000
17     C17    -6.2039    0.9783    0.0368 C.ar     1 ZINC000001651126   -0.1000
18     C18    -6.4814    2.3514    0.0397 C.ar     1 ZINC000001651126   -0.0800
19     C19    -7.7868    2.7868    0.0478 C.ar     1 ZINC000001651126   -0.1500
20     C20    -8.8294    1.8666    0.0531 C.ar     1 ZINC000001651126    0.1200
21     O21   -10.1149    2.3015    0.0606 O.3      1 ZINC000001651126   -0.5000
22     C22    -8.5597    0.5023    0.0502 C.ar     1 ZINC000001651126   -0.1500
23     C23    -7.2581    0.0558    0.0368 C.ar     1 ZINC000001651126   -0.0700
24     H24     1.1805    3.0108    0.0070 H        1 ZINC000001651126    0.1300
25     H25     2.3928    0.1894   -0.0198 H        1 ZINC000001651126    0.1400
26     H26     2.6824    3.9513    0.0073 H        1 ZINC000001651126    0.1300
27     H27     4.7972    5.2002   -0.0054 H        1 ZINC000001651126    0.1300
28     H28     7.5344    4.3258    0.8389 H        1 ZINC000001651126    0.4000
29     H29     6.9864    1.5242   -0.0655 H        1 ZINC000001651126    0.1300
30     H30     4.8812    0.2593   -0.0477 H        1 ZINC000001651126    0.1300
31     H31    -1.3916    2.5671    0.9126 H        1 ZINC000001651126    0.1300
32     H32    -1.4000    2.5768   -0.8673 H        1 ZINC000001651126    0.1300
33     H33    -4.0069    2.4616    0.0344 H        1 ZINC000001651126    0.1300
34     H34    -4.6017   -0.5512    0.0209 H        1 ZINC000001651126    0.1400
35     H35    -5.6724    3.0669    0.0360 H        1 ZINC000001651126    0.1300
36     H36    -8.0019    3.8452    0.0504 H        1 ZINC000001651126    0.1300
37     H37   -10.4924    2.4282   -0.8206 H        1 ZINC000001651126    0.4000
38     H38    -9.3732   -0.2080    0.0544 H        1 ZINC000001651126    0.1300
39     H39    -7.0498   -1.0039    0.0345 H        1 ZINC000001651126    0.1300
@<TRIPOS>BOND
1     1     2     2
2     2     3     1
3     2     12    1
4     3     4     2
5     3     24    1
6     4     5     1
7     4     25    1
8     5     11    ar
9     5     6     ar
10    6     7     ar
11    6     26    1
12    7     8     ar
13    7     27    1
14    8     9     1
15    8     10    ar
16    9     28    1
17    10    11    ar
18    10    29    1
19    11    30    1
20    12    13    1
21    12    31    1
22    12    32    1
23    13    14    2
24    13    15    1
25    15    16    2
26    15    33    1
27    16    17    1
28    16    34    1
29    17    23    ar
30    17    18    ar
31    18    19    ar
32    18    35    1
33    19    20    ar
34    19    36    1
35    20    21    1
36    20    22    ar
37    21    37    1
38    22    23    ar
39    22    38    1
40    23    39    1
@<TRIPOS>SUBSTRUCTURE
1   ZINC000001651126 1     RESIDUE    1   A     ZIN   1
