@<TRIPOS>MOLECULE
ZINC000038813575
  28   29    0    0    0
SMALL
USER_CHARGES
NO_NAME
@<TRIPOS>ATOM
    1 C1       -0.0187     1.5258     0.0104 C.3    1 <0>      -0.1500
    2 C2        0.0021    -0.0041     0.0020 C.3    1 <0>      -0.1100
    3 C3        0.7421    -0.5109     1.2415 C.3    1 <0>      -0.1400
    4 C4        0.7625    -2.0177     1.2333 C.2    1 <0>       0.5000
    5 O5        0.2369    -2.6264     0.3252 O.2    1 <0>      -0.4900
    6 N6        1.3648    -2.6890     2.2348 N.am   1 <0>      -0.6400
    7 C7        1.3838    -4.0883     2.2271 C.2    1 <0>       0.3200
    8 N8        0.8632    -4.8613     1.3117 N.2    1 <0>      -0.2300
    9 N9        1.0770    -6.2039     1.6399 N.pl3  1 <0>      -0.5000
   10 C10       1.7672    -6.2744     2.8221 C.ar   1 <0>       0.1600
   11 C11       2.2386    -7.3287     3.6004 C.ar   1 <0>      -0.1400
   12 C12       2.9160    -7.0644     4.7701 C.ar   1 <0>       0.0200
   13 Cl13      3.5031    -8.3793     5.7396 Cl     1 <0>      -0.0600
   14 C14       3.1344    -5.7543     5.1816 C.ar   1 <0>      -0.1500
   15 C15       2.6806    -4.7063     4.4342 C.ar   1 <0>      -0.0200
   16 C16       1.9961    -4.9495     3.2401 C.ar   1 <0>      -0.1800
   17 H17       1.0039     1.9031     0.0027 H      1 <0>       0.0600
   18 H18      -0.5459     1.8868    -0.8726 H      1 <0>       0.0600
   19 H19      -0.5289     1.8773     0.9072 H      1 <0>       0.0600
   20 H20      -1.0205    -0.3814     0.0098 H      1 <0>       0.0700
   21 H21       0.5123    -0.3556    -0.8948 H      1 <0>       0.0700
   22 H22       1.7647    -0.1336     1.2338 H      1 <0>       0.1000
   23 H23       0.2319    -0.1594     2.1383 H      1 <0>       0.1000
   24 H24       1.7851    -2.2023     2.9609 H      1 <0>       0.4200
   25 H25       0.7830    -6.9645     1.1146 H      1 <0>       0.4500
   26 H26       2.0734    -8.3493     3.2882 H      1 <0>       0.1400
   27 H27       3.6677    -5.5643     6.1014 H      1 <0>       0.1400
   28 H28       2.8545    -3.6920     4.7618 H      1 <0>       0.1400
@<TRIPOS>BOND
   1    1    2 1
   2    1   17 1
   3    1   18 1
   4    1   19 1
   5    2    3 1
   6    2   20 1
   7    2   21 1
   8    3    4 1
   9    3   22 1
  10    3   23 1
  11    4    5 2
  12    4    6 am
  13    6    7 1
  14    6   24 1
  15    7   16 1
  16    7    8 2
  17    8    9 1
  18    9   10 1
  19    9   25 1
  20   10   16 ar
  21   10   11 ar
  22   11   12 ar
  23   11   26 1
  24   12   13 1
  25   12   14 ar
  26   14   15 ar
  27   14   27 1
  28   15   16 ar
  29   15   28 1
