@<TRIPOS>MOLECULE
ZINC000000247943
27    28    1     0     0
SMALL
USER_CHARGES
@<TRIPOS>ATOM
1      O1     -1.1403    0.5736   -1.0213 O.2      1 ZINC000000247943   -0.1200
2      N2     -0.8774    1.4263   -0.1923 N.pl3    1 ZINC000000247943    0.0100
3      O3      0.2218    1.4475    0.3320 O.2      1 ZINC000000247943   -0.1400
4      C4     -1.8915    2.4406    0.1735 C.ar     1 ZINC000000247943    0.0500
5      C5     -3.2202    2.0783    0.2906 C.ar     1 ZINC000000247943   -0.0700
6      C6     -4.1674    3.0257    0.6323 C.ar     1 ZINC000000247943   -0.0600
7      C7     -3.7857    4.3349    0.8571 C.ar     1 ZINC000000247943   -0.0900
8      C8     -2.4564    4.6970    0.7409 C.ar     1 ZINC000000247943   -0.0200
9      C9     -1.5089    3.7491    0.4035 C.ar     1 ZINC000000247943   -0.6200
10     S10     0.1851    4.2106    0.2553 S.o2     1 ZINC000000247943    2.5800
11     O11     0.7137    3.4553   -0.8261 O.2      1 ZINC000000247943   -0.9200
12     O12     0.2197    5.6304    0.3018 O.2      1 ZINC000000247943   -0.9200
13     C13     1.0087    3.6450    1.7067 C.ar     1 ZINC000000247943   -0.6500
14     C14     0.6976    4.1944    2.9364 C.ar     1 ZINC000000247943   -0.0300
15     C15     1.3437    3.7507    4.0751 C.ar     1 ZINC000000247943   -0.1400
16     C16     2.3006    2.7573    3.9841 C.ar     1 ZINC000000247943   -0.0600
17     C17     2.6111    2.2072    2.7545 C.ar     1 ZINC000000247943   -0.1400
18     C18     1.9619    2.6480    1.6164 C.ar     1 ZINC000000247943    0.0200
19     H19    -3.5185    1.0553    0.1149 H        1 ZINC000000247943    0.1600
20     H20    -5.2058    2.7428    0.7231 H        1 ZINC000000247943    0.1600
21     H21    -4.5257    5.0750    1.1233 H        1 ZINC000000247943    0.1600
22     H22    -2.1582    5.7201    0.9162 H        1 ZINC000000247943    0.1700
23     H23    -0.0500    4.9706    3.0075 H        1 ZINC000000247943    0.1300
24     H24     1.1011    4.1805    5.0357 H        1 ZINC000000247943    0.1300
25     H25     2.8059    2.4111    4.8736 H        1 ZINC000000247943    0.1300
26     H26     3.3589    1.4313    2.6833 H        1 ZINC000000247943    0.1400
27     H27     2.2044    2.2182    0.6557 H        1 ZINC000000247943    0.1500
@<TRIPOS>BOND
1     1     2     2
2     2     3     2
3     2     4     1
4     4     9     ar
5     4     5     ar
6     5     6     ar
7     5     19    1
8     6     7     ar
9     6     20    1
10    7     8     ar
11    7     21    1
12    8     9     ar
13    8     22    1
14    9     10    1
15    10    11    2
16    10    12    2
17    10    13    1
18    13    18    ar
19    13    14    ar
20    14    15    ar
21    14    23    1
22    15    16    ar
23    15    24    1
24    16    17    ar
25    16    25    1
26    17    18    ar
27    17    26    1
28    18    27    1
@<TRIPOS>SUBSTRUCTURE
1   ZINC000000247943 1     RESIDUE    1   A     ZIN   1
