@<TRIPOS>MOLECULE
ZINC000055422027
43    44    1     0     0
SMALL
USER_CHARGES
@<TRIPOS>ATOM
1      C1      6.0236    0.7832    2.2053 C.3      1 ZINC000055422027   -0.1500
2      C2      5.5876   -0.6806    2.2961 C.3      1 ZINC000055422027    0.0700
3      O3      4.1375   -0.7549    2.2905 O.3      1 ZINC000055422027   -0.3600
4      C4      3.5898   -1.9781    2.3650 C.2      1 ZINC000055422027    0.4600
5      O5      4.2985   -2.9543    2.4327 O.2      1 ZINC000055422027   -0.4800
6      C6      2.0908   -2.1337    2.3643 C.3      1 ZINC000055422027   -0.1000
7      C7      1.7325   -3.6209    2.3347 C.3      1 ZINC000055422027    0.0800
8      H8      0.6500   -3.7310    2.2706 H        1 ZINC000055422027    0.0900
9      C9      2.2272   -4.2783    3.5920 C.2      1 ZINC000055422027    0.5400
10     O10     2.0748   -3.7014    4.6479 O.2      1 ZINC000055422027   -0.5500
11     N11     2.8278   -5.4729    3.5956 N.am     1 ZINC000055422027   -0.7100
12     C12     3.0909   -6.2326    2.3768 C.3      1 ZINC000055422027    0.1200
13     C13     2.2151   -5.7125    1.2354 C.3      1 ZINC000055422027    0.0300
14     N14     2.3569   -4.2496    1.1629 N.3      1 ZINC000055422027   -0.5100
15     C15     1.7794   -3.7257   -0.0821 C.3      1 ZINC000055422027    0.0800
16     C16     2.7132   -4.0139   -1.2292 C.ar     1 ZINC000055422027   -0.0800
17     C17     3.6956   -3.1018   -1.5666 C.ar     1 ZINC000055422027   -0.0900
18     C18     4.5523   -3.3661   -2.6188 C.ar     1 ZINC000055422027   -0.1200
19     C19     4.4268   -4.5428   -3.3334 C.ar     1 ZINC000055422027   -0.0800
20     C20     5.3603   -4.8307   -4.4809 C.3      1 ZINC000055422027   -0.1200
21     C21     3.4452   -5.4555   -2.9952 C.ar     1 ZINC000055422027   -0.1200
22     C22     2.5911   -5.1929   -1.9405 C.ar     1 ZINC000055422027   -0.1100
23     H23     5.6283    1.3337    3.0590 H        1 ZINC000055422027    0.0700
24     H24     7.1122    0.8390    2.2095 H        1 ZINC000055422027    0.0800
25     H25     5.6409    1.2197    1.2827 H        1 ZINC000055422027    0.0700
26     H26     5.9829   -1.2310    1.4423 H        1 ZINC000055422027    0.0700
27     H27     5.9703   -1.1171    3.2186 H        1 ZINC000055422027    0.0700
28     H28     1.6778   -1.6784    3.2645 H        1 ZINC000055422027    0.1200
29     H29     1.6749   -1.6422    1.4849 H        1 ZINC000055422027    0.1100
30     H30     3.1013   -5.8515    4.4457 H        1 ZINC000055422027    0.4000
31     H31     4.1409   -6.1266    2.1041 H        1 ZINC000055422027    0.0800
32     H32     2.8691   -7.2854    2.5519 H        1 ZINC000055422027    0.0800
33     H33     2.5378   -6.1584    0.2946 H        1 ZINC000055422027    0.1000
34     H34     1.1736   -5.9710    1.4268 H        1 ZINC000055422027    0.0500
35     H35     0.8182   -4.2054   -0.2668 H        1 ZINC000055422027    0.0500
36     H36     1.6366   -2.6489    0.0085 H        1 ZINC000055422027    0.0900
37     H37     3.7937   -2.1825   -1.0083 H        1 ZINC000055422027    0.1200
38     H38     5.3193   -2.6532   -2.8829 H        1 ZINC000055422027    0.1200
39     H39     6.2373   -5.3621   -4.1112 H        1 ZINC000055422027    0.0700
40     H40     4.8479   -5.4457   -5.2206 H        1 ZINC000055422027    0.0700
41     H41     5.6710   -3.8925   -4.9407 H        1 ZINC000055422027    0.0700
42     H42     3.3474   -6.3750   -3.5532 H        1 ZINC000055422027    0.1200
43     H43     1.8242   -5.9060   -1.6762 H        1 ZINC000055422027    0.1200
@<TRIPOS>BOND
1     1     2     1
2     1     23    1
3     1     24    1
4     1     25    1
5     2     3     1
6     2     26    1
7     2     27    1
8     3     4     1
9     4     5     2
10    4     6     1
11    6     7     1
12    6     28    1
13    6     29    1
14    7     8     1
15    7     14    1
16    7     9     1
17    9     10    2
18    9     11    am
19    11    12    1
20    11    30    1
21    12    13    1
22    12    31    1
23    12    32    1
24    13    14    1
25    13    33    1
26    13    34    1
27    14    15    1
28    15    16    1
29    15    35    1
30    15    36    1
31    16    22    ar
32    16    17    ar
33    17    18    ar
34    17    37    1
35    18    19    ar
36    18    38    1
37    19    20    1
38    19    21    ar
39    20    39    1
40    20    40    1
41    20    41    1
42    21    22    ar
43    21    42    1
44    22    43    1
@<TRIPOS>SUBSTRUCTURE
1   ZINC000055422027 1     RESIDUE    1   A     ZIN   1
