@<TRIPOS>MOLECULE
ZINC000060134681
  10    9    0    0    0
SMALL
USER_CHARGES
NO_NAME
@<TRIPOS>ATOM
    1 O1        0.0021    -0.0041     0.0020 O.2    1 <0>      -0.5000
    2 C2       -0.0143     1.2034     0.0087 C.2    1 <0>      -0.8000
    3 P3        1.5442     2.1317    -0.0012 P.3    1 <0>       2.1900
    4 O4        1.6271     3.0266     1.2820 O.co2  1 <0>      -1.1700
    5 O5        2.7486     1.1299    -0.0181 O.co2  1 <0>      -1.2000
    6 O6        1.6027     3.0403    -1.2762 O.co2  1 <0>      -1.1700
    7 P7       -1.5974     2.0890     0.0210 P.3    1 <0>       2.1900
    8 O8       -1.6987     2.9954    -1.2528 O.co2  1 <0>      -1.1700
    9 O9       -2.7743     1.0548     0.0209 O.co2  1 <0>      -1.2000
   10 O10      -1.6865     2.9815     1.3055 O.co2  1 <0>      -1.1700
@<TRIPOS>BOND
   1    1    2 2
   2    2    3 1
   3    2    7 1
   4    3    4 ar
   5    3    5 ar
   6    3    6 ar
   7    7    8 ar
   8    7    9 ar
   9    7   10 ar
