@<TRIPOS>MOLECULE
ZINC000012404528
32    35    1     0     0
SMALL
USER_CHARGES
@<TRIPOS>ATOM
1      O1      0.0261    0.0609    0.5719 O.2      1 ZINC000012404528   -0.5300
2      C2     -0.0023    1.2445    0.2946 C.2      1 ZINC000012404528    0.5600
3      N3     -1.1033    2.0102    0.2048 N.am     1 ZINC000012404528   -0.6600
4      C4     -0.7833    3.3210   -0.1314 C.ar     1 ZINC000012404528    0.1400
5      C5     -1.5781    4.4431   -0.3311 C.ar     1 ZINC000012404528   -0.1700
6      C6     -1.0000    5.6523   -0.6651 C.ar     1 ZINC000012404528   -0.0300
7      C7      0.3732    5.7639   -0.8051 C.ar     1 ZINC000012404528   -0.6800
8      S8      1.0909    7.3157   -1.2310 S.o2     1 ZINC000012404528    2.7100
9      O9      2.3032    7.0255   -1.9807 O.co2    1 ZINC000012404528   -1.0600
10     O10     0.1084    8.0256   -2.0353 O.co2    1 ZINC000012404528   -1.0800
11     O11     1.3736    8.0043    0.0188 O.co2    1 ZINC000012404528   -1.0700
12     C12     1.1805    4.6613   -0.6110 C.ar     1 ZINC000012404528   -0.0100
13     C13     0.6078    3.4374   -0.2740 C.ar     1 ZINC000012404528   -0.0800
14     C14     1.1700    2.0998    0.0022 C.2      1 ZINC000012404528   -0.2600
15     C15     2.4990    1.7278   -0.0115 C.2      1 ZINC000012404528    0.1900
16     N16     2.9866    0.4442    0.0709 N.pl3    1 ZINC000012404528   -0.6000
17     C17     4.3734    0.4392    0.0265 C.ar     1 ZINC000012404528    0.1900
18     C18     5.2903   -0.6057    0.0773 C.ar     1 ZINC000012404528   -0.1800
19     C19     6.6443   -0.3443    0.0145 C.ar     1 ZINC000012404528   -0.0600
20     C20     7.1084    0.9562   -0.0999 C.ar     1 ZINC000012404528   -0.2300
21     C21     6.2172    2.0072   -0.1519 C.ar     1 ZINC000012404528    0.0000
22     C22     4.8461    1.7561   -0.0894 C.ar     1 ZINC000012404528   -0.3100
23     C23     3.6640    2.6370   -0.1243 C.2      1 ZINC000012404528    0.3900
24     O24     3.6484    3.8492   -0.2229 O.2      1 ZINC000012404528   -0.4100
25     H25    -2.0062    1.6891    0.3551 H        1 ZINC000012404528    0.4000
26     H26    -2.6504    4.3695   -0.2254 H        1 ZINC000012404528    0.1100
27     H27    -1.6252    6.5194   -0.8189 H        1 ZINC000012404528    0.1300
28     H28     2.2515    4.7472   -0.7203 H        1 ZINC000012404528    0.1700
29     H29     4.9419   -1.6241    0.1664 H        1 ZINC000012404528    0.1100
30     H30     7.3490   -1.1617    0.0553 H        1 ZINC000012404528    0.1100
31     H31     8.1703    1.1472   -0.1481 H        1 ZINC000012404528    0.1100
32     H32     6.5791    3.0209   -0.2407 H        1 ZINC000012404528    0.1100
@<TRIPOS>BOND
1     1     2     2
2     2     14    1
3     2     3     am
4     3     4     1
5     3     25    1
6     4     13    ar
7     4     5     ar
8     5     6     ar
9     5     26    1
10    6     7     ar
11    6     27    1
12    7     8     1
13    7     12    ar
14    8     9     ar
15    8     10    ar
16    8     11    ar
17    12    13    ar
18    12    28    1
19    13    14    1
20    14    15    2
21    15    23    1
22    15    16    1
23    16    17    1
24    17    22    ar
25    17    18    ar
26    18    19    ar
27    18    29    1
28    19    20    ar
29    19    30    1
30    20    21    ar
31    20    31    1
32    21    22    ar
33    21    32    1
34    22    23    1
35    23    24    2
@<TRIPOS>SUBSTRUCTURE
1   ZINC000012404528 1     RESIDUE    1   A     ZIN   1
