@<TRIPOS>MOLECULE
ZINC000150340157
21    22    1     0     0
SMALL
USER_CHARGES
@<TRIPOS>ATOM
1      O1      0.0021   -0.0041    0.0020 O.co2    1 ZINC000150340157   -0.6800
2      C2     -0.0145    1.2150    0.0087 C.2      1 ZINC000150340157    0.4900
3      O3      1.0330    1.8389    0.0021 O.co2    1 ZINC000150340157   -0.6800
4      C4     -1.3296    1.9507    0.0190 C.3      1 ZINC000150340157    0.0400
5      N5     -2.4301    0.9837    0.0189 N.am     1 ZINC000150340157   -0.5300
6      C6     -3.0032    0.4830   -1.0904 C.2      1 ZINC000150340157    0.5700
7      O7     -2.6947    0.7564   -2.2329 O.2      1 ZINC000150340157   -0.4300
8      C8     -4.0701   -0.4556   -0.6864 C.ar     1 ZINC000150340157   -0.0800
9      C9     -4.9743   -1.2478   -1.3759 C.ar     1 ZINC000150340157   -0.0200
10     I10    -4.9850   -1.2525   -3.4709 I        1 ZINC000150340157    0.0400
11     C11    -5.8727   -2.0385   -0.6725 C.ar     1 ZINC000150340157   -0.0500
12     I12    -7.2399   -3.2373   -1.7131 I        1 ZINC000150340157    0.0400
13     C13    -5.8709   -2.0406    0.7099 C.ar     1 ZINC000150340157   -0.0500
14     I14    -7.2355   -3.2425    1.7503 I        1 ZINC000150340157    0.0400
15     C15    -4.9708   -1.2520    1.4135 C.ar     1 ZINC000150340157   -0.0200
16     I16    -4.9762   -1.2632    3.5084 I        1 ZINC000150340157    0.0400
17     C17    -4.0683   -0.4577    0.7242 C.ar     1 ZINC000150340157   -0.0800
18     C18    -2.9966    0.4753    1.1281 C.2      1 ZINC000150340157    0.5700
19     O19    -2.6814    0.7410    2.2706 O.2      1 ZINC000150340157   -0.4300
20     H20    -1.3917    2.5717    0.9126 H        1 ZINC000150340157    0.1000
21     H21    -1.4001    2.5813   -0.8673 H        1 ZINC000150340157    0.1000
@<TRIPOS>BOND
1     1     2     ar
2     2     3     ar
3     2     4     1
4     4     5     1
5     4     20    1
6     4     21    1
7     5     18    am
8     5     6     am
9     6     7     2
10    6     8     1
11    8     17    ar
12    8     9     ar
13    9     10    1
14    9     11    ar
15    11    12    1
16    11    13    ar
17    13    14    1
18    13    15    ar
19    15    16    1
20    15    17    ar
21    17    18    1
22    18    19    2
@<TRIPOS>SUBSTRUCTURE
1   ZINC000150340157 1     RESIDUE    1   A     ZIN   1
