@<TRIPOS>MOLECULE
ZINC000028703729
56    59    1     0     0
SMALL
USER_CHARGES
@<TRIPOS>ATOM
1      C1     -0.0439    1.4604   -0.0044 C.3      1 ZINC000028703729    0.0900
2      N2     -0.0225   -0.0045   -0.0117 N.am     1 ZINC000028703729   -0.7300
3      C3      0.5820   -0.6645   -1.0194 C.2      1 ZINC000028703729    0.5700
4      O4      1.1096   -0.0442   -1.9224 O.2      1 ZINC000028703729   -0.5500
5      C5      0.6036   -2.1390   -1.0268 C.ar     1 ZINC000028703729   -0.2300
6      C6      0.1082   -2.8513    0.0658 C.ar     1 ZINC000028703729   -0.0100
7      C7      0.1289   -4.2413    0.0582 C.ar     1 ZINC000028703729   -0.1200
8      C8     -0.3995   -4.9950    1.2221 C.ar     1 ZINC000028703729   -0.0400
9      C9     -0.3756   -6.3883    1.2215 C.ar     1 ZINC000028703729   -0.0900
10     C10    -0.8675   -7.0851    2.3061 C.ar     1 ZINC000028703729   -0.1400
11     C11    -1.3850   -6.4016    3.3944 C.ar     1 ZINC000028703729    0.0900
12     F12    -1.8656   -7.0878    4.4543 F        1 ZINC000028703729   -0.1400
13     C13    -1.4107   -5.0164    3.3991 C.ar     1 ZINC000028703729   -0.1400
14     C14    -0.9156   -4.3115    2.3212 C.ar     1 ZINC000028703729   -0.0900
15     C15     0.6439   -4.9296   -1.0393 C.ar     1 ZINC000028703729   -0.0100
16     C16     1.1401   -4.2301   -2.1323 C.ar     1 ZINC000028703729   -0.1600
17     C17     1.6872   -4.9658   -3.2981 C.ar     1 ZINC000028703729    0.0300
18     C18     1.2655   -4.6461   -4.5875 C.ar     1 ZINC000028703729   -0.1500
19     C19     1.7780   -5.3339   -5.6687 C.ar     1 ZINC000028703729   -0.0100
20     C20     2.7083   -6.3390   -5.4745 C.ar     1 ZINC000028703729   -0.6800
21     S21     3.3587   -7.2126   -6.8596 S.o2     1 ZINC000028703729    2.7100
22     O22     3.8088   -8.4673   -6.3673 O.2      1 ZINC000028703729   -0.9500
23     O23     2.4001   -7.0848   -7.9007 O.2      1 ZINC000028703729   -0.9500
24     N24     4.7085   -6.3966   -7.3640 N.am     1 ZINC000028703729   -1.0100
25     C25     4.7327   -5.3093   -8.3533 C.3      1 ZINC000028703729    0.1200
26     C26     6.2042   -4.8761   -8.5221 C.3      1 ZINC000028703729   -0.1300
27     C27     6.9911   -6.1235   -8.0402 C.3      1 ZINC000028703729   -0.1300
28     C28     6.0841   -6.6359   -6.8908 C.3      1 ZINC000028703729    0.1100
29     C29     3.1304   -6.6606   -4.1970 C.ar     1 ZINC000028703729   -0.0100
30     C30     2.6291   -5.9755   -3.1089 C.ar     1 ZINC000028703729   -0.1300
31     C31     1.1171   -2.8294   -2.1350 C.ar     1 ZINC000028703729    0.3100
32     N32     1.6112   -2.1280   -3.2234 N.pl3    1 ZINC000028703729   -0.8400
33     H33     0.9783    1.8386    0.0088 H        1 ZINC000028703729    0.0600
34     H34    -0.5531    1.8208   -0.8982 H        1 ZINC000028703729    0.0600
35     H35    -0.5727    1.8116    0.8816 H        1 ZINC000028703729    0.0800
36     H36    -0.4433   -0.4993    0.7086 H        1 ZINC000028703729    0.4000
37     H37    -0.2914   -2.3223    0.9184 H        1 ZINC000028703729    0.1300
38     H38     0.0270   -6.9219    0.3733 H        1 ZINC000028703729    0.1300
39     H39    -0.8493   -8.1650    2.3065 H        1 ZINC000028703729    0.1400
40     H40    -1.8153   -4.4875    4.2494 H        1 ZINC000028703729    0.1400
41     H41    -0.9360   -3.2317    2.3257 H        1 ZINC000028703729    0.1300
42     H42     0.6574   -6.0095   -1.0398 H        1 ZINC000028703729    0.1400
43     H43     0.5389   -3.8618   -4.7403 H        1 ZINC000028703729    0.1400
44     H44     1.4517   -5.0873   -6.6683 H        1 ZINC000028703729    0.1400
45     H45     4.3396   -5.6656   -9.3055 H        1 ZINC000028703729    0.0800
46     H46     4.1377   -4.4691   -7.9953 H        1 ZINC000028703729    0.0700
47     H47     6.4254   -4.6608   -9.5675 H        1 ZINC000028703729    0.0800
48     H48     6.4268   -4.0134   -7.8941 H        1 ZINC000028703729    0.0800
49     H49     7.0751   -6.8638   -8.8358 H        1 ZINC000028703729    0.0800
50     H50     7.9750   -5.8434   -7.6639 H        1 ZINC000028703729    0.0800
51     H51     6.2788   -6.0765   -5.9758 H        1 ZINC000028703729    0.0700
52     H52     6.2452   -7.7013   -6.7266 H        1 ZINC000028703729    0.0900
53     H53     3.8570   -7.4462   -4.0512 H        1 ZINC000028703729    0.1400
54     H54     2.9593   -6.2273   -2.1119 H        1 ZINC000028703729    0.1400
55     H55     1.9056   -2.6052   -4.0149 H        1 ZINC000028703729    0.4000
56     H56     1.6626   -1.1598   -3.1937 H        1 ZINC000028703729    0.4200
@<TRIPOS>BOND
1     1     2     1
2     1     33    1
3     1     34    1
4     1     35    1
5     2     3     am
6     2     36    1
7     3     4     2
8     3     5     1
9     5     31    ar
10    5     6     ar
11    6     7     ar
12    6     37    1
13    7     8     1
14    7     15    ar
15    8     14    ar
16    8     9     ar
17    9     10    ar
18    9     38    1
19    10    11    ar
20    10    39    1
21    11    12    1
22    11    13    ar
23    13    14    ar
24    13    40    1
25    14    41    1
26    15    16    ar
27    15    42    1
28    16    17    1
29    16    31    ar
30    17    30    ar
31    17    18    ar
32    18    19    ar
33    18    43    1
34    19    20    ar
35    19    44    1
36    20    21    1
37    20    29    ar
38    21    22    2
39    21    23    2
40    21    24    am
41    24    28    1
42    24    25    1
43    25    26    1
44    25    45    1
45    25    46    1
46    26    27    1
47    26    47    1
48    26    48    1
49    27    28    1
50    27    49    1
51    27    50    1
52    28    51    1
53    28    52    1
54    29    30    ar
55    29    53    1
56    30    54    1
57    31    32    1
58    32    55    1
59    32    56    1
@<TRIPOS>SUBSTRUCTURE
1   ZINC000028703729 1     RESIDUE    1   A     ZIN   1
