@<TRIPOS>MOLECULE
ZINC000098209617
68    73    1     0     0
SMALL
USER_CHARGES
@<TRIPOS>ATOM
1      C1      0.0449    2.1432    0.5294 C.3      1 ZINC000098209617   -0.1600
2      C2      0.0984    0.6372    0.2645 C.3      1 ZINC000098209617    0.1000
3      N3      0.7796   -0.0303    1.3765 N.am     1 ZINC000098209617   -0.5000
4      C4      2.1157   -0.1962    1.3365 C.2      1 ZINC000098209617    0.5500
5      O5      2.7483    0.2092    0.3778 O.2      1 ZINC000098209617   -0.5000
6      C6      2.8118   -0.8612    2.4406 C.2      1 ZINC000098209617   -0.1500
7      C7      4.2804   -1.0428    2.3963 C.ar     1 ZINC000098209617   -0.0200
8      C8      4.8387   -2.0128    1.5624 C.ar     1 ZINC000098209617   -0.0700
9      C9      6.2043   -2.1824    1.5211 C.ar     1 ZINC000098209617   -0.1100
10     C10     7.0319   -1.3836    2.3134 C.ar     1 ZINC000098209617    0.0100
11     C11     8.4976   -1.5656    2.2685 C.2      1 ZINC000098209617   -0.2000
12     C12     9.4088   -0.8687    2.9826 C.2      1 ZINC000098209617    0.0600
13     N13    10.6545   -1.2243    2.7603 N.2      1 ZINC000098209617   -0.4700
14     C14    10.8562   -2.1731    1.9080 C.2      1 ZINC000098209617    0.0200
15     S15     9.3689   -2.7353    1.2799 S.3      1 ZINC000098209617    0.1500
16     C16     6.4739   -0.4122    3.1480 C.ar     1 ZINC000098209617   -0.0900
17     C17     5.1078   -0.2392    3.1851 C.ar     1 ZINC000098209617   -0.0100
18     Cl18    4.4134    0.9676    4.2220 Cl       1 ZINC000098209617   -0.0600
19     C19     2.0916   -1.3131    3.5146 C.2      1 ZINC000098209617    0.0200
20     C20     0.6909   -1.1248    3.5283 C.ar     1 ZINC000098209617   -0.2700
21     C21    -0.0918   -1.5692    4.6047 C.ar     1 ZINC000098209617    0.2600
22     N22    -1.3953   -1.3664    4.5640 N.ar     1 ZINC000098209617   -0.5700
23     C23    -1.9644   -0.7555    3.5305 C.ar     1 ZINC000098209617    0.6000
24     N24    -3.3330   -0.5691    3.5390 N.pl3    1 ZINC000098209617   -0.6300
25     C25    -4.0798   -0.9141    4.6727 C.ar     1 ZINC000098209617    0.1600
26     C26    -3.5287   -0.7655    5.9387 C.ar     1 ZINC000098209617   -0.0800
27     C27    -4.2648   -1.1056    7.0563 C.ar     1 ZINC000098209617   -0.1000
28     C28    -5.5564   -1.5958    6.9143 C.ar     1 ZINC000098209617    0.0700
29     N29    -6.3026   -1.9400    8.0469 N.3      1 ZINC000098209617   -0.4800
30     C30    -5.5905   -2.9316    8.8654 C.3      1 ZINC000098209617    0.0300
31     C31    -6.4107   -3.2358   10.1210 C.3      1 ZINC000098209617    0.0000
32     N32    -7.7291   -3.7530    9.7315 N.4      1 ZINC000098209617   -0.3900
33     H33    -7.6124   -4.5917    9.1828 H        1 ZINC000098209617    0.4200
34     C34    -8.5095   -4.0615   10.9372 C.3      1 ZINC000098209617   -0.0500
35     C35    -8.4379   -2.7423    8.9355 C.3      1 ZINC000098209617    0.0000
36     C36    -7.6345   -2.4340    7.6701 C.3      1 ZINC000098209617    0.0200
37     C37    -6.1076   -1.7439    5.6482 C.ar     1 ZINC000098209617   -0.1400
38     C38    -5.3732   -1.3993    4.5309 C.ar     1 ZINC000098209617   -0.1200
39     N39    -1.2675   -0.3184    2.4925 N.ar     1 ZINC000098209617   -0.5900
40     C40     0.0507   -0.4752    2.4505 C.ar     1 ZINC000098209617    0.4700
41     H41     1.0590    2.5323    0.6205 H        1 ZINC000098209617    0.0600
42     H42    -0.4619    2.6399   -0.2979 H        1 ZINC000098209617    0.0800
43     H43    -0.5005    2.3302    1.4545 H        1 ZINC000098209617    0.0600
44     H44    -0.9157    0.2481    0.1734 H        1 ZINC000098209617    0.1000
45     H45     0.6438    0.4502   -0.6606 H        1 ZINC000098209617    0.1000
46     H46     4.1992   -2.6307    0.9495 H        1 ZINC000098209617    0.1400
47     H47     6.6358   -2.9336    0.8761 H        1 ZINC000098209617    0.1300
48     H48     9.1369   -0.0867    3.6762 H        1 ZINC000098209617    0.1800
49     H49    11.8267   -2.5600    1.6343 H        1 ZINC000098209617    0.2000
50     H50     7.1135    0.2056    3.7608 H        1 ZINC000098209617    0.1400
51     H51     2.5865   -1.8062    4.3382 H        1 ZINC000098209617    0.1500
52     H52     0.3627   -2.0669    5.4485 H        1 ZINC000098209617    0.1900
53     H53    -3.7770   -0.1992    2.7599 H        1 ZINC000098209617    0.4300
54     H54    -2.5243   -0.3843    6.0491 H        1 ZINC000098209617    0.1400
55     H55    -3.8360   -0.9907    8.0408 H        1 ZINC000098209617    0.1300
56     H56    -5.4533   -3.8471    8.2900 H        1 ZINC000098209617    0.0700
57     H57    -4.6176   -2.5337    9.1541 H        1 ZINC000098209617    0.1300
58     H58    -5.8910   -3.9816   10.7226 H        1 ZINC000098209617    0.1400
59     H59    -6.5361   -2.3228   10.7031 H        1 ZINC000098209617    0.1400
60     H60    -8.6352   -3.1557   11.5303 H        1 ZINC000098209617    0.1200
61     H61    -9.4879   -4.4454   10.6483 H        1 ZINC000098209617    0.1200
62     H62    -7.9845   -4.8124   11.5276 H        1 ZINC000098209617    0.1200
63     H63    -9.4211   -3.1222    8.6581 H        1 ZINC000098209617    0.1400
64     H64    -8.5529   -1.8318    9.5236 H        1 ZINC000098209617    0.1400
65     H65    -8.1529   -1.6731    7.0866 H        1 ZINC000098209617    0.1300
66     H66    -7.5310   -3.3413    7.0750 H        1 ZINC000098209617    0.0700
67     H67    -7.1119   -2.1255    5.5377 H        1 ZINC000098209617    0.1300
68     H68    -5.8018   -1.5145    3.5464 H        1 ZINC000098209617    0.1300
@<TRIPOS>BOND
1     1     2     1
2     1     41    1
3     1     42    1
4     1     43    1
5     2     3     1
6     2     44    1
7     2     45    1
8     3     40    1
9     3     4     am
10    4     5     2
11    4     6     1
12    6     7     1
13    6     19    2
14    7     17    ar
15    7     8     ar
16    8     9     ar
17    8     46    1
18    9     10    ar
19    9     47    1
20    10    11    1
21    10    16    ar
22    11    15    1
23    11    12    2
24    12    13    1
25    12    48    1
26    13    14    2
27    14    15    1
28    14    49    1
29    16    17    ar
30    16    50    1
31    17    18    1
32    19    20    1
33    19    51    1
34    20    40    ar
35    20    21    ar
36    21    22    ar
37    21    52    1
38    22    23    ar
39    23    24    1
40    23    39    ar
41    24    25    1
42    24    53    1
43    25    38    ar
44    25    26    ar
45    26    27    ar
46    26    54    1
47    27    28    ar
48    27    55    1
49    28    29    1
50    28    37    ar
51    29    36    1
52    29    30    1
53    30    31    1
54    30    56    1
55    30    57    1
56    31    32    1
57    31    58    1
58    31    59    1
59    32    33    1
60    32    34    1
61    32    35    1
62    34    60    1
63    34    61    1
64    34    62    1
65    35    36    1
66    35    63    1
67    35    64    1
68    36    65    1
69    36    66    1
70    37    38    ar
71    37    67    1
72    38    68    1
73    39    40    ar
@<TRIPOS>SUBSTRUCTURE
1   ZINC000098209617 1     RESIDUE    1   A     ZIN   1
