@<TRIPOS>MOLECULE
ZINC000165004317
63    68    1     0     0
SMALL
USER_CHARGES
@<TRIPOS>ATOM
1      C1      0.1401    1.4547    1.7066 C.3      1 ZINC000165004317    0.0300
2      O2      0.1048    0.1789    1.0639 O.3      1 ZINC000165004317   -0.3100
3      C3     -1.0836   -0.4839    1.0714 C.ar     1 ZINC000165004317    0.0900
4      C4     -2.1904    0.0855    1.6791 C.ar     1 ZINC000165004317   -0.1500
5      C5     -3.3984   -0.5863    1.6873 C.ar     1 ZINC000165004317   -0.1100
6      C6     -3.5050   -1.8333    1.0863 C.ar     1 ZINC000165004317    0.1500
7      N7     -4.7289   -2.5120    1.0950 N.pl3    1 ZINC000165004317   -0.6300
8      C8     -5.9167   -1.8001    1.0339 C.2      1 ZINC000165004317    0.4900
9      N9     -5.8973   -0.4953    0.8590 N.2      1 ZINC000165004317   -0.5300
10     C10    -7.0370    0.2154    0.7967 C.2      1 ZINC000165004317    0.1700
11     C11    -6.9710    1.6841    0.5980 C.ar     1 ZINC000165004317   -0.0400
12     C12    -8.1451    2.4341    0.5373 C.ar     1 ZINC000165004317   -0.0700
13     C13    -8.0865    3.8019    0.3519 C.ar     1 ZINC000165004317   -0.1200
14     C14    -6.8668    4.4355    0.2260 C.ar     1 ZINC000165004317   -0.0700
15     C15    -5.6835    3.6955    0.2851 C.ar     1 ZINC000165004317   -0.1400
16     C16    -4.3774    4.3745    0.1498 C.2      1 ZINC000165004317    0.5600
17     O17    -3.3486    3.7290    0.2015 O.2      1 ZINC000165004317   -0.5000
18     N18    -4.3271    5.7091   -0.0308 N.am     1 ZINC000165004317   -0.6700
19     C19    -3.1004    6.3373   -0.2616 C.ar     1 ZINC000165004317    0.1700
20     C20    -2.1078    5.6794   -0.9783 C.ar     1 ZINC000165004317   -0.1200
21     C21    -0.8969    6.2975   -1.2075 C.ar     1 ZINC000165004317   -0.0500
22     C22    -0.6686    7.5830   -0.7199 C.ar     1 ZINC000165004317   -0.0400
23     C23     0.6340    8.2505   -0.9659 C.2      1 ZINC000165004317    0.2200
24     N24     0.9904    9.4542   -0.5632 N.2      1 ZINC000165004317   -0.3000
25     N25     2.1928    9.6676   -0.9747 N.pl3    1 ZINC000165004317   -0.2300
26     N26     2.6095    8.6379   -1.6252 N.2      1 ZINC000165004317   -0.0500
27     N27     1.6792    7.7445   -1.6358 N.2      1 ZINC000165004317   -0.2700
28     C28    -1.6652    8.2410   -0.0015 C.ar     1 ZINC000165004317   -0.0600
29     C29    -2.8765    7.6214    0.2210 C.ar     1 ZINC000165004317   -0.1500
30     C30    -5.7374    2.3162    0.4778 C.ar     1 ZINC000165004317   -0.0100
31     C31    -8.2485   -0.3895    0.9122 C.2      1 ZINC000165004317   -0.0500
32     N32    -8.3184   -1.7443    1.0952 N.pl3    1 ZINC000165004317   -0.3300
33     C33    -9.3510   -2.6189    1.2417 C.2      1 ZINC000165004317   -0.0600
34     C34    -8.8110   -3.8518    1.3909 C.2      1 ZINC000165004317    0.0300
35     N35    -7.4828   -3.7427    1.3383 N.2      1 ZINC000165004317   -0.4600
36     C36    -7.1588   -2.4748    1.1537 C.2      1 ZINC000165004317    0.1400
37     C37    -2.3971   -2.4070    0.4761 C.ar     1 ZINC000165004317   -0.2000
38     C38    -1.1884   -1.7317    0.4634 C.ar     1 ZINC000165004317    0.1200
39     O39    -0.1023   -2.2911   -0.1339 O.3      1 ZINC000165004317   -0.3000
40     C40    -0.2801   -3.5783   -0.7286 C.3      1 ZINC000165004317    0.0300
41     H41     1.1434    1.8735    1.6281 H        1 ZINC000165004317    0.1000
42     H42    -0.5719    2.1244    1.2241 H        1 ZINC000165004317    0.0600
43     H43    -0.1243    1.3395    2.7577 H        1 ZINC000165004317    0.0500
44     H44    -2.1093    1.0553    2.1474 H        1 ZINC000165004317    0.1400
45     H45    -4.2602   -0.1408    2.1619 H        1 ZINC000165004317    0.1400
46     H46    -4.7460   -3.4806    1.1438 H        1 ZINC000165004317    0.4300
47     H47    -9.1027    1.9444    0.6351 H        1 ZINC000165004317    0.1300
48     H48    -8.9989    4.3777    0.3049 H        1 ZINC000165004317    0.1400
49     H49    -6.8272    5.5050    0.0813 H        1 ZINC000165004317    0.1300
50     H50    -5.1425    6.2337   -0.0006 H        1 ZINC000165004317    0.4100
51     H51    -2.2850    4.6831   -1.3557 H        1 ZINC000165004317    0.1400
52     H52    -0.1258    5.7858   -1.7642 H        1 ZINC000165004317    0.1400
53     H53     2.7038   10.4773   -0.8188 H        1 ZINC000165004317    0.4800
54     H54    -1.4900    9.2370    0.3775 H        1 ZINC000165004317    0.1400
55     H55    -3.6492    8.1311    0.7774 H        1 ZINC000165004317    0.1300
56     H56    -4.8256    1.7392    0.5242 H        1 ZINC000165004317    0.1500
57     H57    -9.1538    0.1972    0.8601 H        1 ZINC000165004317    0.1700
58     H58   -10.4032   -2.3754    1.2393 H        1 ZINC000165004317    0.1900
59     H59    -9.3632   -4.7695    1.5297 H        1 ZINC000165004317    0.1900
60     H60    -2.4792   -3.3772    0.0088 H        1 ZINC000165004317    0.1400
61     H61    -1.0426   -3.5175   -1.5052 H        1 ZINC000165004317    0.0500
62     H62     0.6610   -3.9084   -1.1684 H        1 ZINC000165004317    0.1000
63     H63    -0.5944   -4.2907    0.0342 H        1 ZINC000165004317    0.0500
@<TRIPOS>BOND
1     1     2     1
2     1     41    1
3     1     42    1
4     1     43    1
5     2     3     1
6     3     38    ar
7     3     4     ar
8     4     5     ar
9     4     44    1
10    5     6     ar
11    5     45    1
12    6     7     1
13    6     37    ar
14    7     8     1
15    7     46    1
16    8     36    1
17    8     9     2
18    9     10    1
19    10    11    1
20    10    31    2
21    11    30    ar
22    11    12    ar
23    12    13    ar
24    12    47    1
25    13    14    ar
26    13    48    1
27    14    15    ar
28    14    49    1
29    15    16    1
30    15    30    ar
31    16    17    2
32    16    18    am
33    18    19    1
34    18    50    1
35    19    29    ar
36    19    20    ar
37    20    21    ar
38    20    51    1
39    21    22    ar
40    21    52    1
41    22    23    1
42    22    28    ar
43    23    27    1
44    23    24    2
45    24    25    1
46    25    26    1
47    25    53    1
48    26    27    2
49    28    29    ar
50    28    54    1
51    29    55    1
52    30    56    1
53    31    32    1
54    31    57    1
55    32    36    1
56    32    33    1
57    33    34    2
58    33    58    1
59    34    35    1
60    34    59    1
61    35    36    2
62    37    38    ar
63    37    60    1
64    38    39    1
65    39    40    1
66    40    61    1
67    40    62    1
68    40    63    1
@<TRIPOS>SUBSTRUCTURE
1   ZINC000165004317 1     RESIDUE    1   A     ZIN   1
