@<TRIPOS>MOLECULE
ZINC000028826985
57    62    1     0     0
SMALL
USER_CHARGES
@<TRIPOS>ATOM
1      C1     -0.0184    1.5028    0.0103 C.3      1 ZINC000028826985   -0.1700
2      C2      0.0021   -0.0041    0.0020 C.2      1 ZINC000028826985    0.5000
3      O3      1.0607   -0.5962   -0.0113 O.2      1 ZINC000028826985   -0.5100
4      N4     -1.1558   -0.6938    0.0094 N.am     1 ZINC000028826985   -0.6300
5      C5     -1.1369   -2.0882    0.0017 C.2      1 ZINC000028826985    0.0400
6      C6     -2.2259   -2.8689    0.0026 C.2      1 ZINC000028826985   -0.1800
7      C7     -1.9698   -4.2341   -0.0060 C.2      1 ZINC000028826985    0.0300
8      C8     -3.0415   -5.2559   -0.0073 C.ar     1 ZINC000028826985   -0.0500
9      C9     -3.0143   -6.2984   -0.9340 C.ar     1 ZINC000028826985   -0.0500
10     C10    -4.0156   -7.2476   -0.9298 C.ar     1 ZINC000028826985   -0.1200
11     C11    -5.0454   -7.1669   -0.0094 C.ar     1 ZINC000028826985   -0.1100
12     C12    -5.0783   -6.1352    0.9119 C.ar     1 ZINC000028826985   -0.1300
13     C13    -4.0796   -5.1834    0.9219 C.ar     1 ZINC000028826985   -0.1000
14     C14    -0.6328   -4.5517   -0.0140 C.2      1 ZINC000028826985   -0.2100
15     C15    -0.0847   -5.9122   -0.0245 C.2      1 ZINC000028826985    0.3300
16     N16    -0.7748   -7.0404   -0.0336 N.2      1 ZINC000028826985   -0.2600
17     N17     0.0272   -8.0519   -0.0394 N.2      1 ZINC000028826985   -0.2200
18     C18     1.2571   -7.6378   -0.0325 C.2      1 ZINC000028826985    0.1100
19     S19     2.7701   -8.5445   -0.0248 S.3      1 ZINC000028826985    0.0800
20     C20     3.8061   -7.3314   -0.8891 C.3      1 ZINC000028826985   -0.0600
21     C21     3.5012   -7.3796   -2.3641 C.ar     1 ZINC000028826985   -0.0900
22     C22     2.2231   -7.1072   -2.8150 C.ar     1 ZINC000028826985   -0.1100
23     C23     1.9435   -7.1515   -4.1681 C.ar     1 ZINC000028826985   -0.1100
24     C24     2.9420   -7.4676   -5.0702 C.ar     1 ZINC000028826985   -0.1000
25     C25     4.2203   -7.7390   -4.6194 C.ar     1 ZINC000028826985   -0.1100
26     C26     4.5009   -7.6906   -3.2667 C.ar     1 ZINC000028826985   -0.0900
27     C27     3.5428   -5.9467   -0.3751 C.2      1 ZINC000028826985    0.2300
28     C28     4.6995   -5.0392   -0.2589 C.ar     1 ZINC000028826985   -0.0700
29     C29     5.9744   -5.4769   -0.6254 C.ar     1 ZINC000028826985   -0.0800
30     C30     7.0516   -4.6226   -0.5140 C.ar     1 ZINC000028826985   -0.1200
31     C31     6.8717   -3.3349   -0.0406 C.ar     1 ZINC000028826985   -0.0900
32     C32     5.6117   -2.8947    0.3246 C.ar     1 ZINC000028826985   -0.1200
33     C33     4.5244   -3.7360    0.2127 C.ar     1 ZINC000028826985   -0.0600
34     N34     2.3947   -5.4834   -0.0277 N.2      1 ZINC000028826985   -0.2500
35     N35     1.2391   -6.2586   -0.0326 N.pl3    1 ZINC000028826985   -0.3400
36     S36     0.3186   -3.0729   -0.0181 S.3      1 ZINC000028826985    0.3100
37     H37     1.0042    1.8801    0.0026 H        1 ZINC000028826985    0.1000
38     H38    -0.5455    1.8639   -0.8728 H        1 ZINC000028826985    0.1000
39     H39    -0.5286    1.8543    0.9071 H        1 ZINC000028826985    0.1000
40     H40    -2.0023   -0.2203    0.0200 H        1 ZINC000028826985    0.4200
41     H41    -3.2282   -2.4666    0.0098 H        1 ZINC000028826985    0.1500
42     H42    -2.2113   -6.3620   -1.6535 H        1 ZINC000028826985    0.1100
43     H43    -3.9956   -8.0551   -1.6468 H        1 ZINC000028826985    0.1200
44     H44    -5.8271   -7.9121   -0.0103 H        1 ZINC000028826985    0.1200
45     H45    -5.8850   -6.0775    1.6276 H        1 ZINC000028826985    0.1200
46     H46    -4.1061   -4.3787    1.6418 H        1 ZINC000028826985    0.1200
47     H47     4.8559   -7.5786   -0.7313 H        1 ZINC000028826985    0.1600
48     H48     1.4430   -6.8603   -2.1102 H        1 ZINC000028826985    0.1100
49     H49     0.9448   -6.9394   -4.5203 H        1 ZINC000028826985    0.1300
50     H50     2.7234   -7.5028   -6.1273 H        1 ZINC000028826985    0.1300
51     H51     5.0003   -7.9863   -5.3242 H        1 ZINC000028826985    0.1300
52     H52     5.4996   -7.9027   -2.9145 H        1 ZINC000028826985    0.1300
53     H53     6.1163   -6.4818   -0.9946 H        1 ZINC000028826985    0.1300
54     H54     8.0380   -4.9598   -0.7966 H        1 ZINC000028826985    0.1300
55     H55     7.7187   -2.6704    0.0445 H        1 ZINC000028826985    0.1300
56     H56     5.4786   -1.8885    0.6936 H        1 ZINC000028826985    0.1300
57     H57     3.5415   -3.3911    0.4981 H        1 ZINC000028826985    0.1400
@<TRIPOS>BOND
1     1     2     1
2     1     37    1
3     1     38    1
4     1     39    1
5     2     3     2
6     2     4     am
7     4     5     1
8     4     40    1
9     5     36    1
10    5     6     2
11    6     7     1
12    6     41    1
13    7     8     1
14    7     14    2
15    8     13    ar
16    8     9     ar
17    9     10    ar
18    9     42    1
19    10    11    ar
20    10    43    1
21    11    12    ar
22    11    44    1
23    12    13    ar
24    12    45    1
25    13    46    1
26    14    15    1
27    14    36    1
28    15    35    1
29    15    16    2
30    16    17    1
31    17    18    2
32    18    35    1
33    18    19    1
34    19    20    1
35    20    21    1
36    20    27    1
37    20    47    1
38    21    26    ar
39    21    22    ar
40    22    23    ar
41    22    48    1
42    23    24    ar
43    23    49    1
44    24    25    ar
45    24    50    1
46    25    26    ar
47    25    51    1
48    26    52    1
49    27    28    1
50    27    34    2
51    28    33    ar
52    28    29    ar
53    29    30    ar
54    29    53    1
55    30    31    ar
56    30    54    1
57    31    32    ar
58    31    55    1
59    32    33    ar
60    32    56    1
61    33    57    1
62    34    35    1
@<TRIPOS>SUBSTRUCTURE
1   ZINC000028826985 1     RESIDUE    1   A     ZIN   1
