@<TRIPOS>MOLECULE
ZINC000096909580
68    71    1     0     0
SMALL
USER_CHARGES
@<TRIPOS>ATOM
1      C1     -0.0187    1.5258    0.0104 C.3      1 ZINC000096909580   -0.1500
2      C2      0.0021   -0.0041    0.0020 C.3      1 ZINC000096909580   -0.1200
3      C3      0.7182   -0.4975   -1.2568 C.3      1 ZINC000096909580    0.0600
4      O4      0.7376   -1.9263   -1.2646 O.3      1 ZINC000096909580   -0.3100
5      C5      1.3413   -2.5294   -2.3224 C.ar     1 ZINC000096909580    0.1300
6      C6      1.9084   -1.7617   -3.3289 C.ar     1 ZINC000096909580   -0.2100
7      C7      2.5221   -2.3772   -4.4030 C.ar     1 ZINC000096909580   -0.0400
8      C8      2.5707   -3.7569   -4.4752 C.ar     1 ZINC000096909580   -0.1000
9      C9      3.2402   -4.4256   -5.6481 C.3      1 ZINC000096909580   -0.0600
10     C10     4.7212   -4.6450   -5.3330 C.3      1 ZINC000096909580   -0.1500
11     H11     4.8156   -5.2040   -4.4020 H        1 ZINC000096909580    0.0600
12     C12     5.3731   -5.4343   -6.4701 C.3      1 ZINC000096909580   -0.0600
13     C13     6.7992   -5.7566   -6.1047 C.ar     1 ZINC000096909580   -0.0600
14     C14     7.8132   -4.8775   -6.4363 C.ar     1 ZINC000096909580   -0.0900
15     C15     9.1213   -5.1731   -6.1011 C.ar     1 ZINC000096909580   -0.1200
16     C16     9.4154   -6.3476   -5.4340 C.ar     1 ZINC000096909580   -0.1300
17     C17     8.4012   -7.2262   -5.1016 C.ar     1 ZINC000096909580   -0.1300
18     C18     7.0926   -6.9285   -5.4329 C.ar     1 ZINC000096909580   -0.1200
19     C19     5.4073   -3.3109   -5.1897 C.2      1 ZINC000096909580    0.5100
20     O20     5.9518   -3.0151   -4.1397 O.co2    1 ZINC000096909580   -0.6900
21     O21     5.4178   -2.5274   -6.1238 O.co2    1 ZINC000096909580   -0.7000
22     C22     2.0064   -4.5245   -3.4728 C.ar     1 ZINC000096909580   -0.0600
23     C23     1.3965   -3.9139   -2.3944 C.ar     1 ZINC000096909580   -0.1500
24     C24     0.7822   -4.7510   -1.3021 C.3      1 ZINC000096909580    0.1800
25     N25    -0.6674   -4.8256   -1.5007 N.am     1 ZINC000096909580   -0.7100
26     C26    -1.4304   -5.5265   -0.6388 C.2      1 ZINC000096909580    0.5500
27     O27    -0.9160   -6.0968    0.3033 O.2      1 ZINC000096909580   -0.5400
28     C28    -2.8933   -5.6019   -0.8393 C.ar     1 ZINC000096909580   -0.1100
29     C29    -3.4841   -4.9518   -1.9248 C.ar     1 ZINC000096909580   -0.1000
30     C30    -4.8470   -5.0229   -2.1110 C.ar     1 ZINC000096909580   -0.0800
31     C31    -5.6369   -5.7436   -1.2156 C.ar     1 ZINC000096909580   -0.0300
32     C32    -7.1045   -5.8192   -1.4167 C.ar     1 ZINC000096909580    0.3600
33     N33    -7.6480   -5.2003   -2.4558 N.ar     1 ZINC000096909580   -0.5100
34     C34    -8.9524   -5.2482   -2.6642 C.ar     1 ZINC000096909580    0.1500
35     C35    -9.7532   -5.9563   -1.7803 C.ar     1 ZINC000096909580   -0.2300
36     C36    -9.1518   -6.5919   -0.7039 C.ar     1 ZINC000096909580    0.1500
37     N37    -7.8410   -6.5085   -0.5563 N.ar     1 ZINC000096909580   -0.5100
38     C38    -5.0477   -6.3936   -0.1315 C.ar     1 ZINC000096909580   -0.0800
39     C39    -3.6843   -6.3280    0.0534 C.ar     1 ZINC000096909580   -0.0700
40     H40     1.0039    1.9031    0.0027 H        1 ZINC000096909580    0.0600
41     H41    -0.5459    1.8868   -0.8726 H        1 ZINC000096909580    0.0600
42     H42    -0.5289    1.8773    0.9072 H        1 ZINC000096909580    0.0600
43     H43     0.5293   -0.3651    0.8851 H        1 ZINC000096909580    0.0700
44     H44    -1.0205   -0.3814    0.0098 H        1 ZINC000096909580    0.0700
45     H45     0.1910   -0.1364   -2.1398 H        1 ZINC000096909580    0.0600
46     H46     1.7408   -0.1202   -1.2645 H        1 ZINC000096909580    0.0600
47     H47     1.8701   -0.6838   -3.2733 H        1 ZINC000096909580    0.1200
48     H48     2.9638   -1.7800   -5.1869 H        1 ZINC000096909580    0.1300
49     H49     2.7631   -5.3869   -5.8393 H        1 ZINC000096909580    0.0600
50     H50     3.1463   -3.7917   -6.5299 H        1 ZINC000096909580    0.0700
51     H51     4.8215   -6.3603   -6.6324 H        1 ZINC000096909580    0.0600
52     H52     5.3577   -4.8375   -7.3820 H        1 ZINC000096909580    0.0700
53     H53     7.5834   -3.9599   -6.9575 H        1 ZINC000096909580    0.1300
54     H54     9.9136   -4.4866   -6.3608 H        1 ZINC000096909580    0.1200
55     H55    10.4374   -6.5789   -5.1727 H        1 ZINC000096909580    0.1100
56     H56     8.6310   -8.1439   -4.5807 H        1 ZINC000096909580    0.1100
57     H57     6.3003   -7.6150   -5.1733 H        1 ZINC000096909580    0.1100
58     H58     2.0460   -5.6021   -3.5314 H        1 ZINC000096909580    0.1300
59     H59     1.2052   -5.7551   -1.3323 H        1 ZINC000096909580    0.0800
60     H60     0.9933   -4.2968   -0.3340 H        1 ZINC000096909580    0.0800
61     H61    -1.0779   -4.3706   -2.2526 H        1 ZINC000096909580    0.4000
62     H62    -2.8727   -4.3931   -2.6179 H        1 ZINC000096909580    0.1300
63     H63    -5.3041   -4.5202   -2.9505 H        1 ZINC000096909580    0.1400
64     H64    -9.3893   -4.7418   -3.5121 H        1 ZINC000096909580    0.1700
65     H65   -10.8218   -6.0114   -1.9267 H        1 ZINC000096909580    0.1500
66     H66    -9.7469   -7.1514    0.0026 H        1 ZINC000096909580    0.1700
67     H67    -5.6602   -6.9514    0.5614 H        1 ZINC000096909580    0.1400
68     H68    -3.2282   -6.8314    0.8930 H        1 ZINC000096909580    0.1400
@<TRIPOS>BOND
1     1     2     1
2     1     40    1
3     1     41    1
4     1     42    1
5     2     3     1
6     2     43    1
7     2     44    1
8     3     4     1
9     3     45    1
10    3     46    1
11    4     5     1
12    5     23    ar
13    5     6     ar
14    6     7     ar
15    6     47    1
16    7     8     ar
17    7     48    1
18    8     9     1
19    8     22    ar
20    9     10    1
21    9     49    1
22    9     50    1
23    10    11    1
24    10    12    1
25    10    19    1
26    12    13    1
27    12    51    1
28    12    52    1
29    13    18    ar
30    13    14    ar
31    14    15    ar
32    14    53    1
33    15    16    ar
34    15    54    1
35    16    17    ar
36    16    55    1
37    17    18    ar
38    17    56    1
39    18    57    1
40    19    20    ar
41    19    21    ar
42    22    23    ar
43    22    58    1
44    23    24    1
45    24    25    1
46    24    59    1
47    24    60    1
48    25    26    am
49    25    61    1
50    26    27    2
51    26    28    1
52    28    39    ar
53    28    29    ar
54    29    30    ar
55    29    62    1
56    30    31    ar
57    30    63    1
58    31    32    1
59    31    38    ar
60    32    37    ar
61    32    33    ar
62    33    34    ar
63    34    35    ar
64    34    64    1
65    35    36    ar
66    35    65    1
67    36    37    ar
68    36    66    1
69    38    39    ar
70    38    67    1
71    39    68    1
@<TRIPOS>SUBSTRUCTURE
1   ZINC000096909580 1     RESIDUE    1   A     ZIN   1
