@<TRIPOS>MOLECULE
ZINC000042201314
  40   43    0    0    0
SMALL
USER_CHARGES
NO_NAME
@<TRIPOS>ATOM
    1 C1        0.7494     1.5138     0.1276 C.3    1 <0>       0.0800
    2 N2        0.5854     0.0596     0.0590 N.pl3  1 <0>      -0.2400
    3 N3        0.6894    -0.6506    -1.0141 N.2    1 <0>      -0.2500
    4 C4        0.4771    -1.9307    -0.7467 C.2    1 <0>      -0.0200
    5 C5        0.5116    -3.0470    -1.7140 C.2    1 <0>       0.6100
    6 N6        0.7795    -2.8054    -3.0126 N.am   1 <0>      -0.8400
    7 O7        0.2983    -4.1834    -1.3386 O.2    1 <0>      -0.5300
    8 C8        0.2148    -2.0261     0.6203 C.2    1 <0>      -0.1000
    9 C9        0.3088    -0.7409     1.1078 C.2    1 <0>       0.0300
   10 C10       0.1242    -0.4750     2.5446 C.ar   1 <0>       0.2900
   11 N11      -0.0446     0.7446     3.0326 N.ar   1 <0>      -0.5600
   12 C12      -0.2400     0.9192     4.3330 C.ar   1 <0>       0.5600
   13 N13      -0.4119     2.2031     4.8245 N.pl3  1 <0>      -0.6400
   14 C14      -0.5027     2.4176     6.2030 C.ar   1 <0>       0.1600
   15 C15       0.3026     1.6953     7.0744 C.ar   1 <0>      -0.1100
   16 C16       0.2104     1.9096     8.4356 C.ar   1 <0>      -0.1000
   17 C17      -0.6824     2.8421     8.9314 C.ar   1 <0>      -0.1300
   18 C18      -1.4855     3.5629     8.0667 C.ar   1 <0>      -0.1000
   19 C19      -1.3942     3.3576     6.7040 C.ar   1 <0>      -0.1400
   20 N20      -0.2750    -0.1049     5.1732 N.ar   1 <0>      -0.5500
   21 C21      -0.0993    -1.3489     4.7531 C.ar   1 <0>       0.2000
   22 C22       0.1246    -1.5795     3.4088 C.ar   1 <0>      -0.2200
   23 C23       0.4093    -2.9648     2.9061 C.3    1 <0>      -0.0600
   24 C24      -0.1214    -3.1993     1.4940 C.3    1 <0>      -0.0500
   25 H25       1.7959     1.7529     0.3171 H      1 <0>       0.0900
   26 H26       0.4405     1.9593    -0.8181 H      1 <0>       0.1000
   27 H27       0.1340     1.9112     0.9347 H      1 <0>       0.1100
   28 H28       0.9497    -1.8986    -3.3121 H      1 <0>       0.4100
   29 H29       0.8022    -3.5382    -3.6476 H      1 <0>       0.4100
   30 H30      -0.4693     2.9532     4.2121 H      1 <0>       0.4200
   31 H31       0.9997     0.9666     6.6878 H      1 <0>       0.1300
   32 H32       0.8359     1.3480     9.1136 H      1 <0>       0.1300
   33 H33      -0.7528     3.0075     9.9963 H      1 <0>       0.1200
   34 H34      -2.1819     4.2901     8.4571 H      1 <0>       0.1300
   35 H35      -2.0217     3.9209     6.0292 H      1 <0>       0.1200
   36 H36      -0.1302    -2.1719     5.4517 H      1 <0>       0.1800
   37 H37       1.4875    -3.1247     2.9055 H      1 <0>       0.0800
   38 H38      -0.0515    -3.6861     3.5810 H      1 <0>       0.0900
   39 H39      -1.2040    -3.3206     1.5292 H      1 <0>       0.0800
   40 H40       0.3301    -4.1021     1.0825 H      1 <0>       0.1000
@<TRIPOS>BOND
   1    1    2 1
   2    1   25 1
   3    1   26 1
   4    1   27 1
   5    2    9 1
   6    2    3 1
   7    3    4 2
   8    4    5 1
   9    4    8 1
  10    5    6 am
  11    5    7 2
  12    6   28 1
  13    6   29 1
  14    8   24 1
  15    8    9 2
  16    9   10 1
  17   10   22 ar
  18   10   11 ar
  19   11   12 ar
  20   12   13 1
  21   12   20 ar
  22   13   14 1
  23   13   30 1
  24   14   19 ar
  25   14   15 ar
  26   15   16 ar
  27   15   31 1
  28   16   17 ar
  29   16   32 1
  30   17   18 ar
  31   17   33 1
  32   18   19 ar
  33   18   34 1
  34   19   35 1
  35   20   21 ar
  36   21   22 ar
  37   21   36 1
  38   22   23 1
  39   23   24 1
  40   23   37 1
  41   23   38 1
  42   24   39 1
  43   24   40 1
