@<TRIPOS>MOLECULE
ZINC000001530831
  53   54    0    0    0
SMALL
USER_CHARGES
NO_NAME
@<TRIPOS>ATOM
    1 C1       -0.0157     1.3058     0.0092 C.2    1 <0>      -0.2000
    2 C2        0.0021    -0.0041     0.0020 C.2    1 <0>      -0.1100
    3 C3        1.3172    -0.7397    -0.0145 C.3    1 <0>      -0.1200
    4 C4       -1.2926    -0.7753     0.0102 C.3    1 <0>      -0.0400
    5 H5       -2.1327    -0.0808     0.0220 H      1 <0>       0.1000
    6 C6       -1.3732    -1.6609    -1.2396 C.3    1 <0>      -0.1100
    7 C7       -2.7659    -2.2924    -1.2963 C.3    1 <0>      -0.0800
    8 C8       -3.1084    -2.9086     0.0284 C.2    1 <0>      -0.1100
    9 C9       -4.2374    -3.9057     0.0732 C.3    1 <0>      -0.1200
   10 C10      -2.4940    -2.6372     1.1350 C.2    1 <0>      -0.1600
   11 C11      -1.3493    -1.6721     1.2488 C.3    1 <0>       0.0000
   12 H12      -0.4149    -2.2276     1.3288 H      1 <0>       0.0900
   13 C13      -1.5324    -0.8229     2.4802 C.ar   1 <0>      -0.1200
   14 C14      -2.6614    -0.0297     2.6150 C.ar   1 <0>       0.1300
   15 O15      -3.6044    -0.0171     1.6366 O.3    1 <0>      -0.4900
   16 C16      -2.8280     0.7510     3.7502 C.ar   1 <0>      -0.1500
   17 C17      -1.8695     0.7386     4.7454 C.ar   1 <0>      -0.0500
   18 C18      -2.0529     1.5874     5.9770 C.3    1 <0>      -0.0800
   19 C19      -2.8025     0.7850     7.0424 C.3    1 <0>      -0.1100
   20 C20      -2.9887     1.6468     8.2929 C.3    1 <0>      -0.1200
   21 C21      -3.7383     0.8443     9.3583 C.3    1 <0>      -0.1300
   22 C22      -3.9245     1.7061    10.6087 C.3    1 <0>      -0.1500
   23 C23      -0.7434    -0.0511     4.6133 C.ar   1 <0>      -0.1500
   24 C24      -0.5750    -0.8379     3.4827 C.ar   1 <0>       0.1300
   25 O25       0.5326    -1.6148     3.3537 O.3    1 <0>      -0.4900
   26 H26       0.9122     1.8585     0.0033 H      1 <0>       0.0900
   27 H27      -0.9582     1.8330     0.0166 H      1 <0>       0.0900
   28 H28       1.6441    -0.9226     1.0091 H      1 <0>       0.0700
   29 H29       1.1949    -1.6910    -0.5323 H      1 <0>       0.0600
   30 H30       2.0639    -0.1376    -0.5322 H      1 <0>       0.0600
   31 H31      -1.2097    -1.0538    -2.1300 H      1 <0>       0.0700
   32 H32      -0.6177    -2.4444    -1.1828 H      1 <0>       0.0600
   33 H33      -3.5010    -1.5249    -1.5387 H      1 <0>       0.0800
   34 H34      -2.7825    -3.0621    -2.0679 H      1 <0>       0.0700
   35 H35      -3.8442    -4.9078    -0.0983 H      1 <0>       0.0700
   36 H36      -4.7183    -3.8665     1.0506 H      1 <0>       0.0600
   37 H37      -4.9664    -3.6642    -0.7004 H      1 <0>       0.0600
   38 H38      -2.8278    -3.1334     2.0343 H      1 <0>       0.1000
   39 H39      -4.2986    -0.6805     1.7508 H      1 <0>       0.3900
   40 H40      -3.7073     1.3691     3.8556 H      1 <0>       0.1300
   41 H41      -1.0774     1.8823     6.3637 H      1 <0>       0.0700
   42 H42      -2.6271     2.4782     5.7222 H      1 <0>       0.0700
   43 H43      -3.7781     0.4902     6.6558 H      1 <0>       0.0600
   44 H44      -2.2284    -0.1058     7.2972 H      1 <0>       0.0600
   45 H45      -2.0132     1.9416     8.6795 H      1 <0>       0.0600
   46 H46      -3.5629     2.5376     8.0380 H      1 <0>       0.0600
   47 H47      -4.7139     0.5495     8.9716 H      1 <0>       0.0600
   48 H48      -3.1642    -0.0464     9.6131 H      1 <0>       0.0600
   49 H49      -4.4585     1.1344    11.3677 H      1 <0>       0.0500
   50 H50      -2.9490     2.0009    10.9954 H      1 <0>       0.0500
   51 H51      -4.4987     2.5969    10.3539 H      1 <0>       0.0500
   52 H52       0.0045    -0.0588     5.3924 H      1 <0>       0.1300
   53 H53       0.4329    -2.5054     3.7170 H      1 <0>       0.3900
@<TRIPOS>BOND
   1    1    2 2
   2    1   26 1
   3    1   27 1
   4    2    3 1
   5    2    4 1
   6    3   28 1
   7    3   29 1
   8    3   30 1
   9    4    5 1
  10    4   11 1
  11    4    6 1
  12    6    7 1
  13    6   31 1
  14    6   32 1
  15    7    8 1
  16    7   33 1
  17    7   34 1
  18    8    9 1
  19    8   10 2
  20    9   35 1
  21    9   36 1
  22    9   37 1
  23   10   11 1
  24   10   38 1
  25   11   12 1
  26   11   13 1
  27   13   24 ar
  28   13   14 ar
  29   14   15 1
  30   14   16 ar
  31   15   39 1
  32   16   17 ar
  33   16   40 1
  34   17   18 1
  35   17   23 ar
  36   18   19 1
  37   18   41 1
  38   18   42 1
  39   19   20 1
  40   19   43 1
  41   19   44 1
  42   20   21 1
  43   20   45 1
  44   20   46 1
  45   21   22 1
  46   21   47 1
  47   21   48 1
  48   22   49 1
  49   22   50 1
  50   22   51 1
  51   23   24 ar
  52   23   52 1
  53   24   25 1
  54   25   53 1
