@<TRIPOS>MOLECULE
ZINC000015965747
70    74    1     0     0
SMALL
USER_CHARGES
@<TRIPOS>ATOM
1      C1      0.3151    0.9360    0.8078 C.3      1 ZINC000015965747    0.0300
2      O2      1.5717    0.8120    0.1388 O.3      1 ZINC000015965747   -0.3100
3      C3      1.6240   -0.0324   -0.9231 C.ar     1 ZINC000015965747    0.1900
4      C4      0.4830   -0.7234   -1.3154 C.ar     1 ZINC000015965747   -0.2600
5      C5      0.5281   -1.5816   -2.3915 C.ar     1 ZINC000015965747    0.0100
6      C6      1.7225   -1.7594   -3.0924 C.ar     1 ZINC000015965747   -0.1300
7      C7      1.7744   -2.6784   -4.2470 C.2      1 ZINC000015965747    0.4500
8      N8      1.5003   -3.9385   -4.1561 N.2      1 ZINC000015965747   -0.5100
9      C9      1.6402   -4.5838   -5.4684 C.3      1 ZINC000015965747    0.1000
10     H10     0.6882   -5.0067   -5.7890 H        1 ZINC000015965747    0.1200
11     C11     2.7013   -5.6529   -5.4201 C.ar     1 ZINC000015965747   -0.0800
12     C12     3.8524   -5.4510   -4.6817 C.ar     1 ZINC000015965747   -0.0800
13     C13     4.8259   -6.4311   -4.6370 C.ar     1 ZINC000015965747   -0.1100
14     C14     4.6482   -7.6144   -5.3315 C.ar     1 ZINC000015965747   -0.0300
15     Cl15    5.8703   -8.8461   -5.2755 Cl       1 ZINC000015965747   -0.0700
16     C16     3.4960   -7.8158   -6.0704 C.ar     1 ZINC000015965747   -0.1100
17     C17     2.5206   -6.8373   -6.1097 C.ar     1 ZINC000015965747   -0.0900
18     C18     2.0661   -3.4390   -6.4085 C.3      1 ZINC000015965747    0.1300
19     H19     3.0475   -3.6395   -6.8383 H        1 ZINC000015965747    0.1200
20     C20     1.0429   -3.2362   -7.4962 C.ar     1 ZINC000015965747   -0.1100
21     C21    -0.1102   -2.5198   -7.2353 C.ar     1 ZINC000015965747   -0.0900
22     C22    -1.0490   -2.3335   -8.2325 C.ar     1 ZINC000015965747   -0.1000
23     C23    -0.8344   -2.8642   -9.4920 C.ar     1 ZINC000015965747   -0.0300
24     Cl24   -2.0127   -2.6301  -10.7452 Cl       1 ZINC000015965747   -0.0600
25     C25     0.3199   -3.5810   -9.7526 C.ar     1 ZINC000015965747   -0.1000
26     C26     1.2605   -3.7619   -8.7562 C.ar     1 ZINC000015965747   -0.0900
27     N27     2.1135   -2.2677   -5.5175 N.am     1 ZINC000015965747   -0.5800
28     C28     2.4406   -1.0117   -5.8806 C.2      1 ZINC000015965747    0.7400
29     O29     2.5316   -0.1397   -5.0386 O.2      1 ZINC000015965747   -0.5300
30     N30     2.6669   -0.7225   -7.1774 N.am     1 ZINC000015965747   -0.6200
31     C31     2.9170    0.6590   -7.6220 C.3      1 ZINC000015965747    0.1100
32     C32     4.3158    0.7163   -8.2389 C.3      1 ZINC000015965747    0.0900
33     N33     4.5187   -0.3912   -9.1627 N.am     1 ZINC000015965747   -0.7200
34     C34     3.8265   -1.5312   -9.1419 C.2      1 ZINC000015965747    0.5100
35     O35     4.1408   -2.4130   -9.9129 O.2      1 ZINC000015965747   -0.5400
36     C36     2.6801   -1.7743   -8.2049 C.3      1 ZINC000015965747    0.0400
37     C37     2.8720   -1.0619   -2.6964 C.ar     1 ZINC000015965747    0.2500
38     O38     4.0368   -1.2293   -3.3726 O.3      1 ZINC000015965747   -0.2900
39     C39     5.1465   -0.4282   -2.9617 C.3      1 ZINC000015965747    0.0800
40     C40     6.4507   -1.1136   -3.3740 C.3      1 ZINC000015965747   -0.1500
41     C41     5.0589    0.9455   -3.6297 C.3      1 ZINC000015965747   -0.1700
42     C42     2.8141   -0.1982   -1.6163 C.ar     1 ZINC000015965747   -0.2600
43     H43    -0.4354    1.3006    0.1065 H        1 ZINC000015965747    0.0600
44     H44     0.0106   -0.0374    1.1923 H        1 ZINC000015965747    0.0600
45     H45     0.4117    1.6394    1.6348 H        1 ZINC000015965747    0.1000
46     H46    -0.4416   -0.5869   -0.7742 H        1 ZINC000015965747    0.1300
47     H47    -0.3600   -2.1172   -2.6929 H        1 ZINC000015965747    0.1300
48     H48     3.9912   -4.5271   -4.1399 H        1 ZINC000015965747    0.1300
49     H49     5.7253   -6.2731   -4.0604 H        1 ZINC000015965747    0.1300
50     H50     3.3568   -8.7392   -6.6130 H        1 ZINC000015965747    0.1400
51     H51     1.6210   -6.9946   -6.6861 H        1 ZINC000015965747    0.1400
52     H52    -0.2778   -2.1060   -6.2519 H        1 ZINC000015965747    0.1300
53     H53    -1.9500   -1.7742   -8.0284 H        1 ZINC000015965747    0.1400
54     H54     0.4878   -3.9958  -10.7356 H        1 ZINC000015965747    0.1400
55     H55     2.1618   -4.3211   -8.9595 H        1 ZINC000015965747    0.1400
56     H56     2.1746    0.9458   -8.3668 H        1 ZINC000015965747    0.0800
57     H57     2.8633    1.3354   -6.7689 H        1 ZINC000015965747    0.1200
58     H58     4.4328    1.6576   -8.7760 H        1 ZINC000015965747    0.0900
59     H59     5.0606    0.6623   -7.4449 H        1 ZINC000015965747    0.0700
60     H60     5.2053   -0.2928   -9.8409 H        1 ZINC000015965747    0.4000
61     H61     2.7956   -2.7497   -7.7323 H        1 ZINC000015965747    0.1600
62     H62     1.7424   -1.7442   -8.7598 H        1 ZINC000015965747    0.1100
63     H63     5.1261   -0.3075   -1.8786 H        1 ZINC000015965747    0.0700
64     H64     6.4711   -1.2343   -4.4571 H        1 ZINC000015965747    0.0600
65     H65     7.2972   -0.5026   -3.0605 H        1 ZINC000015965747    0.0800
66     H66     6.5131   -2.0923   -2.8981 H        1 ZINC000015965747    0.0600
67     H67     5.9053    1.5565   -3.3162 H        1 ZINC000015965747    0.0600
68     H68     5.0792    0.8247   -4.7128 H        1 ZINC000015965747    0.0600
69     H69     4.1297    1.4337   -3.3359 H        1 ZINC000015965747    0.0700
70     H70     3.6977    0.3412   -1.3085 H        1 ZINC000015965747    0.1400
@<TRIPOS>BOND
1     1     2     1
2     1     43    1
3     1     44    1
4     1     45    1
5     2     3     1
6     3     42    ar
7     3     4     ar
8     4     5     ar
9     4     46    1
10    5     6     ar
11    5     47    1
12    6     7     1
13    6     37    ar
14    7     27    1
15    7     8     2
16    8     9     1
17    9     10    1
18    9     11    1
19    9     18    1
20    11    17    ar
21    11    12    ar
22    12    13    ar
23    12    48    1
24    13    14    ar
25    13    49    1
26    14    15    1
27    14    16    ar
28    16    17    ar
29    16    50    1
30    17    51    1
31    18    19    1
32    18    20    1
33    18    27    1
34    20    26    ar
35    20    21    ar
36    21    22    ar
37    21    52    1
38    22    23    ar
39    22    53    1
40    23    24    1
41    23    25    ar
42    25    26    ar
43    25    54    1
44    26    55    1
45    27    28    am
46    28    29    2
47    28    30    am
48    30    36    1
49    30    31    1
50    31    32    1
51    31    56    1
52    31    57    1
53    32    33    1
54    32    58    1
55    32    59    1
56    33    34    am
57    33    60    1
58    34    35    2
59    34    36    1
60    36    61    1
61    36    62    1
62    37    38    1
63    37    42    ar
64    38    39    1
65    39    40    1
66    39    41    1
67    39    63    1
68    40    64    1
69    40    65    1
70    40    66    1
71    41    67    1
72    41    68    1
73    41    69    1
74    42    70    1
@<TRIPOS>SUBSTRUCTURE
1   ZINC000015965747 1     RESIDUE    1   A     ZIN   1
