@<TRIPOS>MOLECULE
ZINC000001531359
80    84    1     0     0
SMALL
USER_CHARGES
@<TRIPOS>ATOM
1      C1      8.9465    6.2846    1.4712 C.3      1 ZINC000001531359   -0.1400
2      C2      7.7588    5.5432    2.1451 C.3      1 ZINC000001531359   -0.0600
3      H3      6.9086    5.7862    1.5841 H        1 ZINC000001531359    0.0600
4      C4      7.9481    4.0493    1.9939 C.3      1 ZINC000001531359    0.0000
5      H5      8.4094    3.8344    1.1011 H        1 ZINC000001531359    0.0700
6      C6      6.5703    3.2232    1.9775 C.2      1 ZINC000001531359   -0.0800
7      C7      5.4830    3.9784    1.7239 C.2      1 ZINC000001531359   -0.2200
8      C8      4.0993    3.3611    1.6297 C.3      1 ZINC000001531359   -0.0700
9      C9      4.1943    1.9121    1.1885 C.3      1 ZINC000001531359   -0.0700
10     H10     4.7117    1.8790    0.1915 H        1 ZINC000001531359    0.0700
11     C11     2.8165    1.2711    1.0248 C.3      1 ZINC000001531359   -0.0200
12     C12     1.9740    1.5838    2.3149 C.3      1 ZINC000001531359   -0.1500
13     C13     2.2163    1.8805   -0.1571 C.3      1 ZINC000001531359   -0.1000
14     C14     0.7755    1.3014   -0.3796 C.3      1 ZINC000001531359   -0.1700
15     C15     0.9387   -0.2499   -0.6645 C.3      1 ZINC000001531359    0.1200
16     H16    -0.0921   -0.6595   -0.6453 H        1 ZINC000001531359    0.0300
17     O17     1.5430   -0.3922   -1.8862 O.3      1 ZINC000001531359   -0.5400
18     C18     1.7348   -0.9506    0.3919 C.3      1 ZINC000001531359   -0.0400
19     C19     0.8989   -1.3160    1.5534 C.3      1 ZINC000001531359   -0.1400
20     C20     2.2160   -2.3174   -0.2287 C.3      1 ZINC000001531359   -0.1400
21     C21     3.0039   -0.2002    0.8047 C.3      1 ZINC000001531359   -0.0500
22     H22     3.6806   -0.2905   -0.0755 H        1 ZINC000001531359    0.0600
23     C23     3.7359   -0.8571    2.0212 C.3      1 ZINC000001531359   -0.1000
24     C24     5.1600   -0.3522    1.9843 C.3      1 ZINC000001531359   -0.1200
25     C25     5.1534    1.2022    2.2099 C.3      1 ZINC000001531359   -0.0300
26     C26     4.7905    1.4461    3.5631 C.3      1 ZINC000001531359   -0.1600
27     C27     6.5550    1.7368    1.9570 C.3      1 ZINC000001531359    0.0000
28     C28     7.1606    1.2420    0.6599 C.3      1 ZINC000001531359   -0.1400
29     C29     7.4936    1.2247    3.1494 C.3      1 ZINC000001531359   -0.1100
30     C30     8.9171    1.8280    3.0003 C.3      1 ZINC000001531359   -0.1000
31     C31     8.7880    3.3573    3.0821 C.3      1 ZINC000001531359   -0.1300
32     C32    10.2184    3.8748    3.0582 C.2      1 ZINC000001531359    0.5000
33     O33    10.7603    4.1200    1.9939 O.co2    1 ZINC000001531359   -0.7000
34     O34    10.8228    4.0444    4.1034 O.co2    1 ZINC000001531359   -0.7000
35     C35     8.2009    3.8045    4.4570 C.3      1 ZINC000001531359   -0.0800
36     C36     8.3444    5.2829    4.6404 C.3      1 ZINC000001531359   -0.0800
37     C37     7.5870    6.0464    3.6257 C.3      1 ZINC000001531359   -0.0800
38     H38     8.0568    7.0659    3.6032 H        1 ZINC000001531359    0.0400
39     C39     6.1635    6.2568    3.9599 C.3      1 ZINC000001531359   -0.1300
40     H40     9.8418    6.1669    2.0818 H        1 ZINC000001531359    0.0800
41     H41     9.1236    5.8631    0.4817 H        1 ZINC000001531359    0.0500
42     H42     8.7074    7.3439    1.3774 H        1 ZINC000001531359    0.0300
43     H43     5.5860    5.0517    1.6902 H        1 ZINC000001531359    0.1100
44     H44     3.6108    3.4934    2.5105 H        1 ZINC000001531359    0.0800
45     H45     3.6212    3.9130    0.7615 H        1 ZINC000001531359    0.0500
46     H46     2.3897    1.0375    3.1616 H        1 ZINC000001531359    0.0700
47     H47     2.0081    2.6536    2.5207 H        1 ZINC000001531359    0.0600
48     H48     0.9401    1.2769    2.1569 H        1 ZINC000001531359    0.0500
49     H49     2.7883    1.7770   -1.0621 H        1 ZINC000001531359    0.0700
50     H50     2.0289    3.0103    0.0314 H        1 ZINC000001531359    0.0500
51     H51     0.3655    1.6836   -1.2126 H        1 ZINC000001531359    0.0500
52     H52     0.1422    1.4631    0.5154 H        1 ZINC000001531359    0.0700
53     H53     1.0453   -0.0039   -2.6187 H        1 ZINC000001531359    0.3700
54     H54     0.1138   -2.0017    1.2346 H        1 ZINC000001531359    0.0500
55     H55     1.5182   -1.7989    2.3092 H        1 ZINC000001531359    0.0700
56     H56     0.4477   -0.4170    1.9734 H        1 ZINC000001531359    0.0600
57     H57     2.8295   -2.1212   -1.1080 H        1 ZINC000001531359    0.0600
58     H58     2.8029   -2.8648    0.5090 H        1 ZINC000001531359    0.0500
59     H59     1.3484   -2.9114   -0.5161 H        1 ZINC000001531359    0.0400
60     H60     3.3135   -0.6556    2.9028 H        1 ZINC000001531359    0.0700
61     H61     3.8304   -1.9500    1.8093 H        1 ZINC000001531359    0.0600
62     H62     5.7583   -0.7949    2.7680 H        1 ZINC000001531359    0.0600
63     H63     5.5960   -0.5902    1.0264 H        1 ZINC000001531359    0.0600
64     H64     5.5836    1.0917    4.2215 H        1 ZINC000001531359    0.0600
65     H65     4.6446    2.5158    3.7131 H        1 ZINC000001531359    0.0600
66     H66     3.8650    0.9176    3.7920 H        1 ZINC000001531359    0.0600
67     H67     6.5346    1.5547   -0.1758 H        1 ZINC000001531359    0.0500
68     H68     8.1598    1.6614    0.5422 H        1 ZINC000001531359    0.0600
69     H69     7.2232    0.1540    0.6799 H        1 ZINC000001531359    0.0600
70     H70     7.1476    1.5835    4.0931 H        1 ZINC000001531359    0.0800
71     H71     7.6083    0.1895    3.0519 H        1 ZINC000001531359    0.0600
72     H72     9.5253    1.5087    3.8225 H        1 ZINC000001531359    0.0600
73     H73     9.3931    1.6456    2.0379 H        1 ZINC000001531359    0.0600
74     H74     7.2150    3.4119    4.5282 H        1 ZINC000001531359    0.0500
75     H75     8.7895    3.2984    5.2553 H        1 ZINC000001531359    0.0400
76     H76     7.7541    5.5289    5.6364 H        1 ZINC000001531359    0.0100
77     H77     9.3121    5.5977    4.8180 H        1 ZINC000001531359    0.0800
78     H78     6.0880    6.8095    4.8964 H        1 ZINC000001531359    0.0500
79     H79     5.6833    6.8247    3.1631 H        1 ZINC000001531359    0.0500
80     H80     5.6689    5.2914    4.0669 H        1 ZINC000001531359    0.0600
@<TRIPOS>BOND
1     1     2     1
2     1     40    1
3     1     41    1
4     1     42    1
5     2     3     1
6     2     37    1
7     2     4     1
8     4     5     1
9     4     31    1
10    4     6     1
11    6     27    1
12    6     7     2
13    7     8     1
14    7     43    1
15    8     9     1
16    8     44    1
17    8     45    1
18    9     10    1
19    9     25    1
20    9     11    1
21    11    21    1
22    11    12    1
23    11    13    1
24    12    46    1
25    12    47    1
26    12    48    1
27    13    14    1
28    13    49    1
29    13    50    1
30    14    15    1
31    14    51    1
32    14    52    1
33    15    16    1
34    15    17    1
35    15    18    1
36    17    53    1
37    18    19    1
38    18    20    1
39    18    21    1
40    19    54    1
41    19    55    1
42    19    56    1
43    20    57    1
44    20    58    1
45    20    59    1
46    21    22    1
47    21    23    1
48    23    24    1
49    23    60    1
50    23    61    1
51    24    25    1
52    24    62    1
53    24    63    1
54    25    26    1
55    25    27    1
56    26    64    1
57    26    65    1
58    26    66    1
59    27    28    1
60    27    29    1
61    28    67    1
62    28    68    1
63    28    69    1
64    29    30    1
65    29    70    1
66    29    71    1
67    30    31    1
68    30    72    1
69    30    73    1
70    31    32    1
71    31    35    1
72    32    33    ar
73    32    34    ar
74    35    36    1
75    35    74    1
76    35    75    1
77    36    37    1
78    36    76    1
79    36    77    1
80    37    38    1
81    37    39    1
82    39    78    1
83    39    79    1
84    39    80    1
@<TRIPOS>SUBSTRUCTURE
1   ZINC000001531359 1     RESIDUE    1   A     ZIN   1
