@<TRIPOS>MOLECULE
ZINC000103269269
60    64    1     0     0
SMALL
USER_CHARGES
@<TRIPOS>ATOM
1      C1     -0.5869    1.3173   -2.1993 C.3      1 ZINC000103269269   -0.0500
2      N2     -0.1875   -0.0899   -2.0641 N.4      1 ZINC000103269269   -0.3900
3      H3      0.7270   -0.2203   -2.4700 H        1 ZINC000103269269    0.4200
4      C4     -1.1586   -0.9433   -2.7613 C.3      1 ZINC000103269269    0.0000
5      C5     -0.7329   -2.4078   -2.6367 C.3      1 ZINC000103269269    0.0200
6      N6     -0.6633   -2.7755   -1.2154 N.3      1 ZINC000103269269   -0.4800
7      C7     -0.3286   -4.1256   -1.0625 C.ar     1 ZINC000103269269    0.0700
8      C8     -0.1076   -4.9173   -2.1820 C.ar     1 ZINC000103269269   -0.1400
9      C9      0.2226   -6.2494   -2.0311 C.ar     1 ZINC000103269269   -0.0900
10     C10     0.3336   -6.7976   -0.7600 C.ar     1 ZINC000103269269    0.1600
11     N11     0.6686   -8.1490   -0.6069 N.pl3    1 ZINC000103269269   -0.6200
12     C12     1.4181   -8.7877   -1.5734 C.ar     1 ZINC000103269269    0.6100
13     N13     1.9087   -8.0715   -2.5799 N.ar     1 ZINC000103269269   -0.5800
14     C14     2.6318   -8.6336   -3.5293 C.ar     1 ZINC000103269269    0.2700
15     C15     2.8773  -10.0148   -3.4585 C.ar     1 ZINC000103269269   -0.2900
16     C16     3.6438  -10.6712   -4.4437 C.2      1 ZINC000103269269    0.0700
17     C17     3.8566  -12.0356   -4.3263 C.2      1 ZINC000103269269   -0.1300
18     C18     4.6301  -12.7356   -5.3073 C.1      1 ZINC000103269269    0.2600
19     N19     5.2437  -13.2910   -6.0855 N.1      1 ZINC000103269269   -0.3900
20     C20     3.2803  -12.7535   -3.1848 C.2      1 ZINC000103269269    0.5600
21     O21     3.4598  -13.9523   -3.0691 O.2      1 ZINC000103269269   -0.4700
22     N22     2.5538  -12.0923   -2.2638 N.am     1 ZINC000103269269   -0.4900
23     C23     1.9857  -12.8249   -1.1294 C.3      1 ZINC000103269269    0.1200
24     C24     0.9145  -13.8183   -1.6249 C.3      1 ZINC000103269269   -0.1300
25     C25     1.6756  -15.1603   -1.7622 C.3      1 ZINC000103269269   -0.1400
26     C26     2.6330  -15.1364   -0.5449 C.3      1 ZINC000103269269   -0.1100
27     C27     3.0783  -13.6629   -0.4427 C.3      1 ZINC000103269269   -0.1300
28     C28     2.3389  -10.7422   -2.3732 C.ar     1 ZINC000103269269    0.4800
29     N29     1.6267  -10.0909   -1.4608 N.ar     1 ZINC000103269269   -0.5900
30     C30     0.1131   -6.0059    0.3594 C.ar     1 ZINC000103269269   -0.1200
31     C31    -0.2119   -4.6725    0.2087 C.ar     1 ZINC000103269269   -0.1000
32     C32     0.2869   -1.9130   -0.4990 C.3      1 ZINC000103269269    0.0300
33     C33    -0.1476   -0.4526   -0.6413 C.3      1 ZINC000103269269    0.0000
34     H34    -1.5748    1.4584   -1.7609 H        1 ZINC000103269269    0.1200
35     H35     0.1339    1.9509   -1.6824 H        1 ZINC000103269269    0.1300
36     H36    -0.6161    1.5869   -3.2551 H        1 ZINC000103269269    0.1300
37     H37    -2.1442   -0.8122   -2.3146 H        1 ZINC000103269269    0.1400
38     H38    -1.1971   -0.6645   -3.8144 H        1 ZINC000103269269    0.1400
39     H39    -1.4613   -3.0425   -3.1413 H        1 ZINC000103269269    0.1300
40     H40     0.2467   -2.5421   -3.0955 H        1 ZINC000103269269    0.0700
41     H41    -0.1943   -4.4911   -3.1705 H        1 ZINC000103269269    0.1300
42     H42     0.3941   -6.8652   -2.9016 H        1 ZINC000103269269    0.1500
43     H43     0.3736   -8.6358    0.1785 H        1 ZINC000103269269    0.4300
44     H44     3.0264   -8.0443   -4.3439 H        1 ZINC000103269269    0.1900
45     H45     4.0575  -10.1202   -5.2755 H        1 ZINC000103269269    0.1600
46     H46     1.5472  -12.1268   -0.4163 H        1 ZINC000103269269    0.1200
47     H47     0.1108  -13.9085   -0.8941 H        1 ZINC000103269269    0.0800
48     H48     0.5196  -13.5031   -2.5907 H        1 ZINC000103269269    0.0700
49     H49     0.9875  -16.0031   -1.6960 H        1 ZINC000103269269    0.0600
50     H50     2.2380  -15.1917   -2.6954 H        1 ZINC000103269269    0.1000
51     H51     2.1068  -15.4395    0.3603 H        1 ZINC000103269269    0.0600
52     H52     3.4922  -15.7831   -0.7225 H        1 ZINC000103269269    0.0700
53     H53     4.0312  -13.5246   -0.9534 H        1 ZINC000103269269    0.0700
54     H54     3.1695  -13.3721    0.6039 H        1 ZINC000103269269    0.0700
55     H55     0.1994   -6.4323    1.3479 H        1 ZINC000103269269    0.1400
56     H56    -0.3831   -4.0567    1.0793 H        1 ZINC000103269269    0.1300
57     H57     0.3025   -2.1866    0.5560 H        1 ZINC000103269269    0.1300
58     H58     1.2833   -2.0391   -0.9226 H        1 ZINC000103269269    0.0700
59     H59     0.5637    0.1903   -0.1226 H        1 ZINC000103269269    0.1400
60     H60    -1.1383   -0.3242   -0.2053 H        1 ZINC000103269269    0.1400
@<TRIPOS>BOND
1     1     2     1
2     1     34    1
3     1     35    1
4     1     36    1
5     2     3     1
6     2     33    1
7     2     4     1
8     4     5     1
9     4     37    1
10    4     38    1
11    5     6     1
12    5     39    1
13    5     40    1
14    6     7     1
15    6     32    1
16    7     31    ar
17    7     8     ar
18    8     9     ar
19    8     41    1
20    9     10    ar
21    9     42    1
22    10    11    1
23    10    30    ar
24    11    12    1
25    11    43    1
26    12    29    ar
27    12    13    ar
28    13    14    ar
29    14    15    ar
30    14    44    1
31    15    28    ar
32    15    16    1
33    16    17    2
34    16    45    1
35    17    18    1
36    17    20    1
37    18    19    3
38    20    21    2
39    20    22    am
40    22    23    1
41    22    28    1
42    23    27    1
43    23    24    1
44    23    46    1
45    24    25    1
46    24    47    1
47    24    48    1
48    25    26    1
49    25    49    1
50    25    50    1
51    26    27    1
52    26    51    1
53    26    52    1
54    27    53    1
55    27    54    1
56    28    29    ar
57    30    31    ar
58    30    55    1
59    31    56    1
60    32    33    1
61    32    57    1
62    32    58    1
63    33    59    1
64    33    60    1
@<TRIPOS>SUBSTRUCTURE
1   ZINC000103269269 1     RESIDUE    1   A     ZIN   1
