@<TRIPOS>MOLECULE
ZINC000013126269
37    40    1     0     0
SMALL
USER_CHARGES
@<TRIPOS>ATOM
1      C1     -0.0173    1.4248    0.0099 C.3      1 ZINC000013126269    0.0200
2      O2      0.0021   -0.0041    0.0020 O.3      1 ZINC000013126269   -0.3100
3      C3      0.6061   -0.6074   -1.0562 C.ar     1 ZINC000013126269    0.1000
4      C4      1.1741    0.1677   -2.0645 C.ar     1 ZINC000013126269   -0.1400
5      C5      1.7892   -0.4278   -3.1432 C.ar     1 ZINC000013126269   -0.1300
6      C6      1.8485   -1.8154   -3.2351 C.ar     1 ZINC000013126269    0.1600
7      N7      2.4656   -2.4117   -4.3172 N.am     1 ZINC000013126269   -0.6300
8      C8      2.5303   -3.7527   -4.4191 C.2      1 ZINC000013126269    0.5500
9      O9      3.0786   -4.2629   -5.3799 O.2      1 ZINC000013126269   -0.4900
10     C10     1.9439   -4.6003   -3.3777 C.2      1 ZINC000013126269   -0.1100
11     C11     2.0146   -6.0760   -3.4879 C.2      1 ZINC000013126269    0.2300
12     N12     1.5282   -6.9421   -2.6343 N.2      1 ZINC000013126269   -0.3700
13     O13     1.7492   -8.0737   -3.0104 O.3      1 ZINC000013126269    0.0900
14     C14     2.4174   -8.0470   -4.1741 C.2      1 ZINC000013126269    0.2300
15     C15     2.8712   -9.2163   -4.9553 C.ar     1 ZINC000013126269   -0.0400
16     C16     3.5644   -9.0323   -6.1532 C.ar     1 ZINC000013126269   -0.0300
17     C17     3.9860  -10.1268   -6.8779 C.ar     1 ZINC000013126269   -0.1600
18     C18     3.7222  -11.4082   -6.4194 C.ar     1 ZINC000013126269    0.1300
19     F19     4.1375  -12.4773   -7.1334 F        1 ZINC000013126269   -0.1300
20     C20     3.0343  -11.5965   -5.2308 C.ar     1 ZINC000013126269   -0.1600
21     C21     2.6133  -10.5090   -4.4953 C.ar     1 ZINC000013126269   -0.0500
22     N22     2.5873   -6.7768   -4.4899 N.2      1 ZINC000013126269   -0.4300
23     C23     1.3312   -4.0179   -2.3032 C.2      1 ZINC000013126269    0.0300
24     C24     1.2767   -2.6037   -2.2190 C.ar     1 ZINC000013126269   -0.1000
25     C25     0.6584   -1.9840   -1.1234 C.ar     1 ZINC000013126269   -0.0800
26     H26     1.0053    1.8021    0.0021 H        1 ZINC000013126269    0.0600
27     H27    -0.5445    1.7859   -0.8732 H        1 ZINC000013126269    0.0600
28     H28    -0.5275    1.7763    0.9067 H        1 ZINC000013126269    0.1000
29     H29     1.1314    1.2449   -2.0000 H        1 ZINC000013126269    0.1400
30     H30     2.2260    0.1831   -3.9195 H        1 ZINC000013126269    0.1400
31     H31     2.8563   -1.8585   -5.0116 H        1 ZINC000013126269    0.4200
32     H32     3.7698   -8.0344   -6.5116 H        1 ZINC000013126269    0.1500
33     H33     4.5223   -9.9856   -7.8046 H        1 ZINC000013126269    0.1500
34     H34     2.8311  -12.5970   -4.8783 H        1 ZINC000013126269    0.1500
35     H35     2.0777  -10.6568   -3.5691 H        1 ZINC000013126269    0.1500
36     H36     0.8937   -4.6283   -1.5271 H        1 ZINC000013126269    0.1500
37     H37     0.2206   -2.5823   -0.3381 H        1 ZINC000013126269    0.1500
@<TRIPOS>BOND
1     1     2     1
2     1     26    1
3     1     27    1
4     1     28    1
5     2     3     1
6     3     25    ar
7     3     4     ar
8     4     5     ar
9     4     29    1
10    5     6     ar
11    5     30    1
12    6     24    ar
13    6     7     1
14    7     8     am
15    7     31    1
16    8     9     2
17    8     10    1
18    10    11    1
19    10    23    2
20    11    22    1
21    11    12    2
22    12    13    1
23    13    14    1
24    14    15    1
25    14    22    2
26    15    21    ar
27    15    16    ar
28    16    17    ar
29    16    32    1
30    17    18    ar
31    17    33    1
32    18    19    1
33    18    20    ar
34    20    21    ar
35    20    34    1
36    21    35    1
37    23    24    1
38    23    36    1
39    24    25    ar
40    25    37    1
@<TRIPOS>SUBSTRUCTURE
1   ZINC000013126269 1     RESIDUE    1   A     ZIN   1
