@<TRIPOS>MOLECULE
ZINC000000058176
28    30    1     0     0
SMALL
USER_CHARGES
@<TRIPOS>ATOM
1      C1     -0.0184    1.5028    0.0103 C.3      1 ZINC000000058176   -0.1700
2      C2      0.0021   -0.0041    0.0020 C.2      1 ZINC000000058176    0.4000
3      N3      0.0060   -0.6713   -1.1131 N.2      1 ZINC000000058176   -0.5500
4      H4      0.0240   -0.1717   -1.9444 H        1 ZINC000000058176    0.4400
5      C5     -0.0146   -2.1245   -1.1872 C.3      1 ZINC000000058176    0.0600
6      C6      0.7519   -2.7889   -0.0421 C.3      1 ZINC000000058176   -0.0900
7      C7      0.3765   -2.1011    1.2455 C.2      1 ZINC000000058176   -0.0300
8      C8      0.0244   -0.7721    1.2546 C.2      1 ZINC000000058176   -0.0400
9      N9     -0.2739   -0.3900    2.5386 N.pl3    1 ZINC000000058176   -0.5500
10     C10    -0.1137   -1.4720    3.3602 C.ar     1 ZINC000000058176    0.1700
11     C11    -0.2860   -1.6202    4.7332 C.ar     1 ZINC000000058176   -0.1800
12     C12    -0.0346   -2.8773    5.2685 C.ar     1 ZINC000000058176    0.1900
13     O13    -0.1906   -3.0673    6.6047 O.3      1 ZINC000000058176   -0.4900
14     C14     0.3713   -3.9474    4.4782 C.ar     1 ZINC000000058176   -0.1700
15     C15     0.5484   -3.8288    3.1250 C.ar     1 ZINC000000058176   -0.0200
16     C16     0.3064   -2.5678    2.5548 C.ar     1 ZINC000000058176   -0.1300
17     H17     1.0042    1.8801    0.0026 H        1 ZINC000000058176    0.1400
18     H18    -0.5455    1.8639   -0.8728 H        1 ZINC000000058176    0.1200
19     H19    -0.5286    1.8543    0.9071 H        1 ZINC000000058176    0.1200
20     H20    -1.0503   -2.4631   -1.1597 H        1 ZINC000000058176    0.1200
21     H21     0.4291   -2.4345   -2.1333 H        1 ZINC000000058176    0.1400
22     H22     0.4841   -3.8439    0.0146 H        1 ZINC000000058176    0.1300
23     H23     1.8239   -2.6885   -0.2120 H        1 ZINC000000058176    0.1100
24     H24    -0.5513    0.4970    2.8165 H        1 ZINC000000058176    0.4300
25     H25    -0.6006   -0.7950    5.3548 H        1 ZINC000000058176    0.1500
26     H26    -1.0801   -3.3467    6.8610 H        1 ZINC000000058176    0.4100
27     H27     0.5532   -4.9033    4.9469 H        1 ZINC000000058176    0.1400
28     H28     0.8647   -4.6678    2.5229 H        1 ZINC000000058176    0.1500
@<TRIPOS>BOND
1     1     2     1
2     1     17    1
3     1     18    1
4     1     19    1
5     2     8     1
6     2     3     2
7     3     4     1
8     3     5     1
9     5     6     1
10    5     20    1
11    5     21    1
12    6     7     1
13    6     22    1
14    6     23    1
15    7     16    1
16    7     8     2
17    8     9     1
18    9     10    1
19    9     24    1
20    10    16    ar
21    10    11    ar
22    11    12    ar
23    11    25    1
24    12    13    1
25    12    14    ar
26    13    26    1
27    14    15    ar
28    14    27    1
29    15    16    ar
30    15    28    1
@<TRIPOS>SUBSTRUCTURE
1   ZINC000000058176 1     RESIDUE    1   A     ZIN   1
