@<TRIPOS>MOLECULE
ZINC000002074909
49    51    1     0     0
SMALL
USER_CHARGES
@<TRIPOS>ATOM
1      C1     -0.0187    1.5258    0.0104 C.3      1 ZINC000002074909   -0.1600
2      C2      0.0021   -0.0041    0.0020 C.3      1 ZINC000002074909    0.0600
3      O3      0.6817   -0.4723   -1.1926 O.3      1 ZINC000002074909   -0.3500
4      C4      0.7866   -1.8063   -1.3537 C.2      1 ZINC000002074909    0.5200
5      O5      0.3228   -2.5576   -0.5186 O.2      1 ZINC000002074909   -0.4600
6      C6      1.4629   -2.3532   -2.5410 C.2      1 ZINC000002074909   -0.1300
7      C7      2.8088   -2.6541   -2.6559 C.2      1 ZINC000002074909    0.0200
8      C8      3.8415   -2.4747   -1.5732 C.3      1 ZINC000002074909    0.0600
9      N9      4.4261   -1.1306   -1.6718 N.4      1 ZINC000002074909   -0.5100
10     H10     4.8625   -1.0191   -2.5747 H        1 ZINC000002074909    0.4300
11     H11     3.6997   -0.4391   -1.5617 H        1 ZINC000002074909    0.4300
12     C12     5.4328   -0.9558   -0.6164 C.3      1 ZINC000002074909    0.0200
13     C13     6.1293    0.3947   -0.7947 C.3      1 ZINC000002074909   -0.1800
14     C14     4.7500   -1.0008    0.7521 C.3      1 ZINC000002074909   -0.1900
15     N15     3.0452   -3.1314   -3.8862 N.pl3    1 ZINC000002074909   -0.3700
16     C16     4.3522   -3.5616   -4.3890 C.3      1 ZINC000002074909    0.0400
17     C17     1.8665   -3.1560   -4.6069 C.2      1 ZINC000002074909   -0.0300
18     C18     0.8566   -2.6780   -3.7841 C.2      1 ZINC000002074909    0.0000
19     C19    -0.5377   -2.5766   -4.2601 C.ar     1 ZINC000002074909    0.0100
20     C20    -1.5351   -2.0945   -3.4199 C.ar     1 ZINC000002074909   -0.0800
21     C21    -2.8404   -2.0032   -3.8775 C.ar     1 ZINC000002074909   -0.0500
22     Br22   -4.1923   -1.3461   -2.7301 Br       1 ZINC000002074909   -0.0200
23     C23    -3.1625   -2.3885   -5.1671 C.ar     1 ZINC000002074909   -0.0800
24     C24    -2.1837   -2.8706   -6.0173 C.ar     1 ZINC000002074909   -0.0300
25     C25    -0.8677   -2.9680   -5.5716 C.ar     1 ZINC000002074909   -0.1400
26     C26     0.1935   -3.4787   -6.4602 C.2      1 ZINC000002074909    0.3800
27     O27    -0.0623   -3.8232   -7.5954 O.2      1 ZINC000002074909   -0.3600
28     C28     1.5890   -3.5678   -5.9327 C.2      1 ZINC000002074909    0.3900
29     O29     2.4841   -3.9847   -6.6421 O.2      1 ZINC000002074909   -0.3900
30     H30     1.0039    1.9031    0.0027 H        1 ZINC000002074909    0.0700
31     H31    -0.5459    1.8868   -0.8726 H        1 ZINC000002074909    0.0700
32     H32    -0.5289    1.8773    0.9072 H        1 ZINC000002074909    0.0900
33     H33     0.5293   -0.3651    0.8851 H        1 ZINC000002074909    0.0800
34     H34    -1.0205   -0.3814    0.0098 H        1 ZINC000002074909    0.0800
35     H35     3.3701   -2.5952   -0.5978 H        1 ZINC000002074909    0.1600
36     H36     4.6262   -3.2218   -1.6922 H        1 ZINC000002074909    0.1500
37     H37     6.1699   -1.7561   -0.6812 H        1 ZINC000002074909    0.1400
38     H38     5.3922    1.1951   -0.7299 H        1 ZINC000002074909    0.0800
39     H39     6.8763    0.5245   -0.0115 H        1 ZINC000002074909    0.1100
40     H40     6.6157    0.4268   -1.7696 H        1 ZINC000002074909    0.0800
41     H41     4.2538   -1.9629    0.8791 H        1 ZINC000002074909    0.0800
42     H42     5.4970   -0.8710    1.5352 H        1 ZINC000002074909    0.1100
43     H43     4.0129   -0.2004    0.8169 H        1 ZINC000002074909    0.0800
44     H44     4.4911   -4.6222   -4.1792 H        1 ZINC000002074909    0.1100
45     H45     4.4004   -3.3947   -5.4650 H        1 ZINC000002074909    0.1200
46     H46     5.1376   -2.9880   -3.8967 H        1 ZINC000002074909    0.0900
47     H47    -1.2932   -1.7918   -2.4118 H        1 ZINC000002074909    0.1300
48     H48    -4.1834   -2.3128   -5.5113 H        1 ZINC000002074909    0.1600
49     H49    -2.4389   -3.1706   -7.0229 H        1 ZINC000002074909    0.1600
@<TRIPOS>BOND
1     1     2     1
2     1     30    1
3     1     31    1
4     1     32    1
5     2     3     1
6     2     33    1
7     2     34    1
8     3     4     1
9     4     5     2
10    4     6     1
11    6     18    1
12    6     7     2
13    7     8     1
14    7     15    1
15    8     9     1
16    8     35    1
17    8     36    1
18    9     10    1
19    9     11    1
20    9     12    1
21    12    13    1
22    12    14    1
23    12    37    1
24    13    38    1
25    13    39    1
26    13    40    1
27    14    41    1
28    14    42    1
29    14    43    1
30    15    16    1
31    15    17    1
32    16    44    1
33    16    45    1
34    16    46    1
35    17    28    1
36    17    18    2
37    18    19    1
38    19    25    ar
39    19    20    ar
40    20    21    ar
41    20    47    1
42    21    22    1
43    21    23    ar
44    23    24    ar
45    23    48    1
46    24    25    ar
47    24    49    1
48    25    26    1
49    26    27    2
50    26    28    1
51    28    29    2
@<TRIPOS>SUBSTRUCTURE
1   ZINC000002074909 1     RESIDUE    1   A     ZIN   1
