@<TRIPOS>MOLECULE
ZINC000073224557
  47   50    0    0    0
SMALL
USER_CHARGES
NO_NAME
@<TRIPOS>ATOM
    1 C1       -0.3656     1.3706     0.1410 C.3    1 <0>      -0.1700
    2 C2       -0.2081    -0.1490     0.0586 C.3    1 <0>       0.0900
    3 H3       -1.1922    -0.6146     0.0058 H      1 <0>       0.1100
    4 C4        0.5971    -0.5123    -1.1919 C.3    1 <0>       0.0500
    5 O5        0.8527    -1.9219    -1.1785 O.3    1 <0>      -0.3000
    6 C6        1.4761    -2.4023    -0.0647 C.ar   1 <0>      -0.0400
    7 C7        2.2747    -3.5358    -0.1525 C.ar   1 <0>       0.2800
    8 N8        2.4303    -4.1786    -1.3823 N.pl3  1 <0>      -0.7200
    9 C9        3.5056    -5.1564    -1.5668 C.3    1 <0>       0.1200
   10 C10       3.4544    -5.7077    -2.9931 C.3    1 <0>      -0.1500
   11 C11       4.5773    -6.7288    -3.1858 C.3    1 <0>       0.1100
   12 N12       4.5283    -7.2567    -4.5515 N.pl3  1 <0>      -0.4600
   13 C13       3.8226    -8.3506    -4.9746 C.2    1 <0>      -0.0600
   14 C14       4.0574    -8.4792    -6.2945 C.2    1 <0>      -0.0300
   15 N15       4.8838    -7.4906    -6.6671 N.2    1 <0>      -0.4900
   16 C16       5.1661    -6.7515    -5.6293 C.2    1 <0>       0.1800
   17 C17       2.9219    -4.0368     0.9747 C.ar   1 <0>      -0.0700
   18 F18       3.6938    -5.1410     0.8752 F      1 <0>      -0.1300
   19 C19       2.7747    -3.4034     2.1966 C.ar   1 <0>       0.3000
   20 N20       3.4226    -3.9015     3.3268 N.pl3  1 <0>      -0.8400
   21 C21       1.9704    -2.2568     2.2924 C.ar   1 <0>      -0.2600
   22 C22       1.3084    -1.7549     1.1557 C.ar   1 <0>       0.2100
   23 N23       0.5013    -0.6344     1.2519 N.pl3  1 <0>      -0.4800
   24 C24       0.3404     0.0300     2.4110 C.2    1 <0>       0.2300
   25 C25       0.9442    -0.3647     3.5826 C.2    1 <0>      -0.2200
   26 C26       0.7391     0.3753     4.7913 C.1    1 <0>       0.2800
   27 N27       0.5764     0.9624     5.7501 N.1    1 <0>      -0.4200
   28 C28       1.8052    -1.5591     3.5745 C.2    1 <0>       0.4600
   29 O29       2.3552    -1.9538     4.5888 O.2    1 <0>      -0.4900
   30 H30       0.6188     1.8357     0.1938 H      1 <0>       0.0800
   31 H31      -0.8902     1.7300    -0.7443 H      1 <0>       0.0900
   32 H32      -0.9377     1.6288     1.0321 H      1 <0>       0.0800
   33 H33       0.0257    -0.2526    -2.0830 H      1 <0>       0.1300
   34 H34       1.5421     0.0308    -1.1890 H      1 <0>       0.0800
   35 H35       1.8266    -3.9777    -2.1144 H      1 <0>       0.4100
   36 H36       4.4683    -4.6739    -1.3981 H      1 <0>       0.0700
   37 H37       3.3793    -5.9736    -0.8567 H      1 <0>       0.0800
   38 H38       2.4916    -6.1901    -3.1618 H      1 <0>       0.0800
   39 H39       3.5806    -4.8904    -3.7033 H      1 <0>       0.0800
   40 H40       5.5400    -6.2463    -3.0171 H      1 <0>       0.1000
   41 H41       4.4511    -7.5460    -2.4757 H      1 <0>       0.1000
   42 H42       3.1980    -8.9884    -4.3668 H      1 <0>       0.1700
   43 H43       3.6514    -9.2441    -6.9398 H      1 <0>       0.1700
   44 H44       5.8087    -5.8835    -5.6308 H      1 <0>       0.2000
   45 H45       4.1747    -4.5060     3.2278 H      1 <0>       0.4000
   46 H46       3.1211    -3.6435     4.2119 H      1 <0>       0.4200
   47 H47      -0.2881     0.9082     2.4221 H      1 <0>       0.1800
@<TRIPOS>BOND
   1    1    2 1
   2    1   30 1
   3    1   31 1
   4    1   32 1
   5    2    3 1
   6    2   23 1
   7    2    4 1
   8    4    5 1
   9    4   33 1
  10    4   34 1
  11    5    6 1
  12    6   22 ar
  13    6    7 ar
  14    7    8 1
  15    7   17 ar
  16    8    9 1
  17    8   35 1
  18    9   10 1
  19    9   36 1
  20    9   37 1
  21   10   11 1
  22   10   38 1
  23   10   39 1
  24   11   12 1
  25   11   40 1
  26   11   41 1
  27   12   16 1
  28   12   13 1
  29   13   14 2
  30   13   42 1
  31   14   15 1
  32   14   43 1
  33   15   16 2
  34   16   44 1
  35   17   18 1
  36   17   19 ar
  37   19   20 1
  38   19   21 ar
  39   20   45 1
  40   20   46 1
  41   21   28 1
  42   21   22 ar
  43   22   23 1
  44   23   24 1
  45   24   25 2
  46   24   47 1
  47   25   26 1
  48   25   28 1
  49   26   27 3
  50   28   29 2
