@<TRIPOS>MOLECULE
ZINC000082154500
49    51    1     0     0
SMALL
USER_CHARGES
@<TRIPOS>ATOM
1      C1     -0.0077    1.5961    0.1812 C.3      1 ZINC000082154500    0.0400
2      O2      0.0006    0.1460    0.1083 O.3      1 ZINC000082154500   -0.3500
3      C3      0.6082   -0.5139    1.1145 C.2      1 ZINC000082154500    0.5400
4      O4      1.1171    0.1060    2.0279 O.2      1 ZINC000082154500   -0.5400
5      C5      0.6553   -1.9837    1.1072 C.ar     1 ZINC000082154500   -0.3000
6      C6     -0.0311   -2.7110    0.1332 C.ar     1 ZINC000082154500    0.2500
7      N7      0.0092   -4.0260    0.1241 N.ar     1 ZINC000082154500   -0.5100
8      C8      0.6954   -4.7157    1.0279 C.ar     1 ZINC000082154500    0.4400
9      N9      0.7017   -6.1016    0.9682 N.pl3    1 ZINC000082154500   -0.6200
10     C10     0.0874   -6.7532   -0.0917 C.ar     1 ZINC000082154500    0.3400
11     C11    -0.0033   -8.1468   -0.0958 C.ar     1 ZINC000082154500    0.0300
12     N12    -0.5856   -8.7661   -1.1004 N.ar     1 ZINC000082154500   -0.3700
13     C13    -1.0895   -8.0631   -2.1142 C.ar     1 ZINC000082154500    0.1000
14     C14    -1.7238   -8.7362   -3.2075 C.1      1 ZINC000082154500    0.2600
15     N15    -2.2269   -9.2701   -4.0748 N.1      1 ZINC000082154500   -0.3700
16     C16    -0.9990   -6.6703   -2.1094 C.ar     1 ZINC000082154500    0.1500
17     N17    -0.4186   -6.0509   -1.0986 N.ar     1 ZINC000082154500   -0.4200
18     C18     1.4070   -4.0719    2.0315 C.ar     1 ZINC000082154500   -0.3100
19     C19     1.4006   -2.6833    2.0822 C.ar     1 ZINC000082154500    0.3400
20     N20     2.0982   -2.0040    3.0673 N.pl3    1 ZINC000082154500   -0.7200
21     C21     2.7498   -2.7474    4.1485 C.3      1 ZINC000082154500    0.1200
22     C22     3.4451   -1.7667    5.0949 C.3      1 ZINC000082154500   -0.1100
23     C23     2.3956   -0.8950    5.7905 C.3      1 ZINC000082154500   -0.1500
24     C24     3.0908    0.0283    6.7934 C.3      1 ZINC000082154500   -0.0100
25     N25     3.8013   -0.7769    7.7941 N.4      1 ZINC000082154500   -0.5100
26     H26     4.2138   -0.1669    8.4839 H        1 ZINC000082154500    0.4300
27     H27     3.1503   -1.4018    8.2454 H        1 ZINC000082154500    0.4300
28     C28     4.8572   -1.5619    7.1434 C.3      1 ZINC000082154500   -0.0100
29     C29     4.2300   -2.5463    6.1539 C.3      1 ZINC000082154500   -0.1400
30     H30     1.0179    1.9651    0.1963 H        1 ZINC000082154500    0.0600
31     H31    -0.5266    2.0007   -0.6878 H        1 ZINC000082154500    0.1100
32     H32    -0.5206    1.9113    1.0899 H        1 ZINC000082154500    0.0600
33     H33    -0.6015   -2.1887   -0.6206 H        1 ZINC000082154500    0.1800
34     H34     1.1356   -6.6151    1.6674 H        1 ZINC000082154500    0.4300
35     H35     0.4050   -8.7167    0.7257 H        1 ZINC000082154500    0.1800
36     H36    -1.4067   -6.0995   -2.9307 H        1 ZINC000082154500    0.1900
37     H37     1.9612   -4.6432    2.7615 H        1 ZINC000082154500    0.1400
38     H38     2.1554   -1.0360    3.0413 H        1 ZINC000082154500    0.4200
39     H39     2.0016   -3.3164    4.7004 H        1 ZINC000082154500    0.0700
40     H40     3.4873   -3.4303    3.7269 H        1 ZINC000082154500    0.0800
41     H41     4.1277   -1.1344    4.5273 H        1 ZINC000082154500    0.1000
42     H42     1.8701   -0.2952    5.0473 H        1 ZINC000082154500    0.1200
43     H43     1.6832   -1.5317    6.3151 H        1 ZINC000082154500    0.0900
44     H44     3.8027    0.6647    6.2677 H        1 ZINC000082154500    0.1300
45     H45     2.3465    0.6505    7.2903 H        1 ZINC000082154500    0.1400
46     H46     5.5314   -0.8915    6.6102 H        1 ZINC000082154500    0.1300
47     H47     5.4170   -2.1136    7.8986 H        1 ZINC000082154500    0.1400
48     H48     3.5557   -3.2173    6.6861 H        1 ZINC000082154500    0.0900
49     H49     5.0157   -3.1269    5.6706 H        1 ZINC000082154500    0.1200
@<TRIPOS>BOND
1     1     2     1
2     1     30    1
3     1     31    1
4     1     32    1
5     2     3     1
6     3     4     2
7     3     5     1
8     5     19    ar
9     5     6     ar
10    6     7     ar
11    6     33    1
12    7     8     ar
13    8     9     1
14    8     18    ar
15    9     10    1
16    9     34    1
17    10    17    ar
18    10    11    ar
19    11    12    ar
20    11    35    1
21    12    13    ar
22    13    14    1
23    13    16    ar
24    14    15    3
25    16    17    ar
26    16    36    1
27    18    19    ar
28    18    37    1
29    19    20    1
30    20    21    1
31    20    38    1
32    21    22    1
33    21    39    1
34    21    40    1
35    22    29    1
36    22    23    1
37    22    41    1
38    23    24    1
39    23    42    1
40    23    43    1
41    24    25    1
42    24    44    1
43    24    45    1
44    25    26    1
45    25    27    1
46    25    28    1
47    28    29    1
48    28    46    1
49    28    47    1
50    29    48    1
51    29    49    1
@<TRIPOS>SUBSTRUCTURE
1   ZINC000082154500 1     RESIDUE    1   A     ZIN   1
