@<TRIPOS>MOLECULE
ZINC000018254725
  27   28    0    0    0
SMALL
USER_CHARGES
NO_NAME
@<TRIPOS>ATOM
    1 C1       -0.0187     1.5258     0.0104 C.3    1 <0>      -0.1500
    2 C2        0.0021    -0.0041     0.0020 C.3    1 <0>       0.0600
    3 O3        0.7043    -0.4851     1.1784 O.3    1 <0>      -0.3500
    4 C4        0.8122    -1.8207     1.3231 C.2    1 <0>       0.5200
    5 O5        0.3324    -2.5630     0.4889 O.2    1 <0>      -0.4900
    6 C6        1.5111    -2.3804     2.4915 C.ar   1 <0>      -0.2200
    7 C7        2.0634    -1.5290     3.4632 C.ar   1 <0>       0.2000
    8 N8        2.6890    -1.9993     4.5112 N.ar   1 <0>      -0.4800
    9 C9        2.8382    -3.3150     4.7169 C.ar   1 <0>       0.1700
   10 C10       3.5143    -3.7924     5.8517 C.ar   1 <0>      -0.0900
   11 C11       3.6548    -5.1336     6.0424 C.ar   1 <0>      -0.0600
   12 C12       3.1376    -6.0473     5.1268 C.ar   1 <0>      -0.1000
   13 Br13      3.3563    -7.9009     5.4308 Br     1 <0>      -0.0300
   14 C14       2.4750    -5.6204     4.0141 C.ar   1 <0>      -0.0400
   15 C15       2.3130    -4.2456     3.7882 C.ar   1 <0>      -0.1400
   16 C16       1.6274    -3.7670     2.6491 C.ar   1 <0>       0.2600
   17 O17       1.1050    -4.6198     1.7387 O.3    1 <0>      -0.4600
   18 H18       1.0039     1.9031     0.0027 H      1 <0>       0.0700
   19 H19      -0.5459     1.8868    -0.8726 H      1 <0>       0.0800
   20 H20      -0.5289     1.8773     0.9072 H      1 <0>       0.0700
   21 H21      -1.0205    -0.3814     0.0098 H      1 <0>       0.0700
   22 H22       0.5123    -0.3556    -0.8948 H      1 <0>       0.0700
   23 H23       1.9693    -0.4600     3.3416 H      1 <0>       0.1800
   24 H24       3.9220    -3.0977     6.5711 H      1 <0>       0.1500
   25 H25       4.1757    -5.4945     6.9170 H      1 <0>       0.1500
   26 H26       2.0772    -6.3368     3.3107 H      1 <0>       0.1500
   27 H27       0.1934    -4.8835     1.9245 H      1 <0>       0.4100
@<TRIPOS>BOND
   1    1    2 1
   2    1   18 1
   3    1   19 1
   4    1   20 1
   5    2    3 1
   6    2   21 1
   7    2   22 1
   8    3    4 1
   9    4    5 2
  10    4    6 1
  11    6   16 ar
  12    6    7 ar
  13    7    8 ar
  14    7   23 1
  15    8    9 ar
  16    9   15 ar
  17    9   10 ar
  18   10   11 ar
  19   10   24 1
  20   11   12 ar
  21   11   25 1
  22   12   13 1
  23   12   14 ar
  24   14   15 ar
  25   14   26 1
  26   15   16 ar
  27   16   17 1
  28   17   27 1
