@<TRIPOS>MOLECULE
ZINC000043128366
76    81    1     0     0
SMALL
USER_CHARGES
@<TRIPOS>ATOM
1      C1      2.6996   -1.6219    0.6870 C.3      1 ZINC000043128366    0.0300
2      O2      2.3878   -3.0072    0.8474 O.3      1 ZINC000043128366   -0.4000
3      C3      1.0024   -3.3144    0.6790 C.3      1 ZINC000043128366    0.0300
4      C4      0.7861   -4.8167    0.8718 C.3      1 ZINC000043128366    0.0000
5      N5      1.0993   -5.1824    2.2597 N.4      1 ZINC000043128366   -0.3900
6      H6      2.0348   -4.8784    2.4845 H        1 ZINC000043128366    0.4300
7      C7      1.0082   -6.6402    2.4141 C.3      1 ZINC000043128366    0.0000
8      C8      1.3527   -7.0233    3.8550 C.3      1 ZINC000043128366    0.0300
9      N9      0.4181   -6.3567    4.7729 N.3      1 ZINC000043128366   -0.5300
10     C10     0.6810   -6.7446    6.1652 C.3      1 ZINC000043128366    0.1000
11     C11    -0.4354   -6.2445    7.0453 C.ar     1 ZINC000043128366   -0.0800
12     C12    -0.3520   -4.9873    7.6164 C.ar     1 ZINC000043128366   -0.1200
13     C13    -1.3715   -4.5239    8.4228 C.ar     1 ZINC000043128366   -0.0800
14     C14    -2.4868   -5.3254    8.6616 C.ar     1 ZINC000043128366   -0.0100
15     C15    -3.5856   -4.8330    9.5266 C.2      1 ZINC000043128366    0.1800
16     N16    -3.4518   -4.0634   10.5863 N.2      1 ZINC000043128366   -0.2700
17     N17    -4.7167   -3.8166   11.1313 N.pl3    1 ZINC000043128366   -0.4200
18     C18    -5.6409   -4.4545   10.3807 C.2      1 ZINC000043128366    0.1700
19     C19    -4.9645   -5.1021    9.3559 C.2      1 ZINC000043128366   -0.3100
20     C20    -5.9586   -5.8076    8.5212 C.2      1 ZINC000043128366    0.4900
21     O21    -5.7282   -6.4794    7.5353 O.2      1 ZINC000043128366   -0.4300
22     C22    -7.2886   -5.5412    9.1140 C.ar     1 ZINC000043128366   -0.2000
23     C23    -8.5768   -5.9398    8.7606 C.ar     1 ZINC000043128366    0.2500
24     N24    -8.7771   -6.7508    7.6487 N.am     1 ZINC000043128366   -0.6600
25     C25    -9.8433   -7.5738    7.5982 C.2      1 ZINC000043128366    0.7300
26     O26   -10.6959   -7.5179    8.4630 O.2      1 ZINC000043128366   -0.5600
27     N27    -9.9641   -8.4588    6.5889 N.am     1 ZINC000043128366   -0.5800
28     N28    -8.9558   -8.5978    5.6779 N.3      1 ZINC000043128366   -0.3100
29     C29    -9.3393   -8.0308    4.3769 C.3      1 ZINC000043128366   -0.0100
30     C30    -8.1622   -8.1537    3.4057 C.3      1 ZINC000043128366    0.0700
31     O31    -7.7752   -9.5268    3.3050 O.3      1 ZINC000043128366   -0.3800
32     C32    -7.3947  -10.1108    4.5538 C.3      1 ZINC000043128366    0.0700
33     C33    -8.5640  -10.0077    5.5366 C.3      1 ZINC000043128366    0.0000
34     C34    -9.6658   -5.5208    9.5295 C.ar     1 ZINC000043128366   -0.1300
35     C35    -9.4677   -4.7181   10.6299 C.ar     1 ZINC000043128366   -0.0600
36     C36    -8.1872   -4.3157   10.9900 C.ar     1 ZINC000043128366   -0.1100
37     C37    -7.0933   -4.7178   10.2390 C.ar     1 ZINC000043128366    0.0000
38     C38    -2.5653   -6.5915    8.0833 C.ar     1 ZINC000043128366   -0.0700
39     C39    -1.5421   -7.0422    7.2744 C.ar     1 ZINC000043128366   -0.0900
40     C40     0.4803   -4.8972    4.6121 C.3      1 ZINC000043128366    0.0200
41     C41     0.1427   -4.5319    3.1649 C.3      1 ZINC000043128366   -0.0100
42     H42     3.7696   -1.4713    0.8302 H        1 ZINC000043128366    0.1000
43     H43     2.4184   -1.2999   -0.3156 H        1 ZINC000043128366    0.0600
44     H44     2.1487   -1.0377    1.4242 H        1 ZINC000043128366    0.0500
45     H45     0.4163   -2.7654    1.4160 H        1 ZINC000043128366    0.0700
46     H46     0.6860   -3.0275   -0.3238 H        1 ZINC000043128366    0.1000
47     H47    -0.2532   -5.0647    0.6565 H        1 ZINC000043128366    0.1400
48     H48     1.4389   -5.3677    0.1948 H        1 ZINC000043128366    0.1400
49     H49    -0.0058   -6.9673    2.1838 H        1 ZINC000043128366    0.1400
50     H50     1.7090   -7.1223    1.7325 H        1 ZINC000043128366    0.1400
51     H51     1.2706   -8.1037    3.9737 H        1 ZINC000043128366    0.1300
52     H52     2.3714   -6.7085    4.0814 H        1 ZINC000043128366    0.0600
53     H53     0.7398   -7.8308    6.2348 H        1 ZINC000043128366    0.1000
54     H54     1.6247   -6.3079    6.4920 H        1 ZINC000043128366    0.0600
55     H55     0.5127   -4.3674    7.4310 H        1 ZINC000043128366    0.1200
56     H56    -1.3052   -3.5424    8.8685 H        1 ZINC000043128366    0.1300
57     H57    -4.8993   -3.2778   11.9170 H        1 ZINC000043128366    0.4500
58     H58    -8.1496   -6.7241    6.9096 H        1 ZINC000043128366    0.4300
59     H59   -10.7671   -8.9971    6.5094 H        1 ZINC000043128366    0.4100
60     H60   -10.1964   -8.5755    3.9808 H        1 ZINC000043128366    0.0600
61     H61    -9.6008   -6.9798    4.5007 H        1 ZINC000043128366    0.0900
62     H62    -8.4607   -7.7867    2.4237 H        1 ZINC000043128366    0.1100
63     H63    -7.3225   -7.5650    3.7752 H        1 ZINC000043128366    0.0700
64     H64    -7.1381  -11.1593    4.4021 H        1 ZINC000043128366    0.1100
65     H65    -6.5327   -9.5791    4.9566 H        1 ZINC000043128366    0.0700
66     H66    -8.2596  -10.3999    6.5069 H        1 ZINC000043128366    0.1000
67     H67    -9.4087  -10.5841    5.1591 H        1 ZINC000043128366    0.0600
68     H68   -10.6656   -5.8272    9.2593 H        1 ZINC000043128366    0.1700
69     H69   -10.3148   -4.3980   11.2185 H        1 ZINC000043128366    0.1500
70     H70    -8.0441   -3.6856   11.8553 H        1 ZINC000043128366    0.1400
71     H71    -3.4268   -7.2169    8.2651 H        1 ZINC000043128366    0.1300
72     H72    -1.6020   -8.0227    6.8256 H        1 ZINC000043128366    0.1300
73     H73    -0.2383   -4.4264    5.2830 H        1 ZINC000043128366    0.1300
74     H74     1.4846   -4.5474    4.8509 H        1 ZINC000043128366    0.0600
75     H75     0.2021   -3.4508    3.0397 H        1 ZINC000043128366    0.1300
76     H76    -0.8668   -4.8699    2.9309 H        1 ZINC000043128366    0.1400
@<TRIPOS>BOND
1     1     2     1
2     1     42    1
3     1     43    1
4     1     44    1
5     2     3     1
6     3     4     1
7     3     45    1
8     3     46    1
9     4     5     1
10    4     47    1
11    4     48    1
12    5     6     1
13    5     41    1
14    5     7     1
15    7     8     1
16    7     49    1
17    7     50    1
18    8     9     1
19    8     51    1
20    8     52    1
21    9     10    1
22    9     40    1
23    10    11    1
24    10    53    1
25    10    54    1
26    11    39    ar
27    11    12    ar
28    12    13    ar
29    12    55    1
30    13    14    ar
31    13    56    1
32    14    15    1
33    14    38    ar
34    15    19    1
35    15    16    2
36    16    17    1
37    17    18    1
38    17    57    1
39    18    37    1
40    18    19    2
41    19    20    1
42    20    21    2
43    20    22    1
44    22    37    ar
45    22    23    ar
46    23    24    1
47    23    34    ar
48    24    25    am
49    24    58    1
50    25    26    2
51    25    27    am
52    27    28    1
53    27    59    1
54    28    33    1
55    28    29    1
56    29    30    1
57    29    60    1
58    29    61    1
59    30    31    1
60    30    62    1
61    30    63    1
62    31    32    1
63    32    33    1
64    32    64    1
65    32    65    1
66    33    66    1
67    33    67    1
68    34    35    ar
69    34    68    1
70    35    36    ar
71    35    69    1
72    36    37    ar
73    36    70    1
74    38    39    ar
75    38    71    1
76    39    72    1
77    40    41    1
78    40    73    1
79    40    74    1
80    41    75    1
81    41    76    1
@<TRIPOS>SUBSTRUCTURE
1   ZINC000043128366 1     RESIDUE    1   A     ZIN   1
