@<TRIPOS>MOLECULE
ZINC000068711428
65    68    1     0     0
SMALL
USER_CHARGES
@<TRIPOS>ATOM
1      C1     -2.1349    0.4982    6.0345 C.3      1 ZINC000068711428   -0.1400
2      C2     -1.2767    0.6038    4.7723 C.3      1 ZINC000068711428   -0.1400
3      C3     -0.3027   -0.5453    4.7294 C.2      1 ZINC000068711428    0.5100
4      O4     -0.2956   -1.3679    5.6207 O.2      1 ZINC000068711428   -0.5200
5      N5      0.5605   -0.6590    3.7006 N.am     1 ZINC000068711428   -0.6800
6      C6      1.5234   -1.6743    3.7042 C.ar     1 ZINC000068711428    0.1600
7      C7      2.7832   -1.4397    3.1686 C.ar     1 ZINC000068711428   -0.1300
8      C8      3.7338   -2.4424    3.1717 C.ar     1 ZINC000068711428   -0.0900
9      C9      3.4343   -3.6803    3.7071 C.ar     1 ZINC000068711428   -0.1200
10     C10     2.1767   -3.9206    4.2438 C.ar     1 ZINC000068711428    0.1000
11     O11     1.8834   -5.1387    4.7700 O.3      1 ZINC000068711428   -0.2200
12     C12     2.4010   -5.4489    5.9836 C.ar     1 ZINC000068711428    0.4200
13     N13     3.2442   -4.6206    6.5874 N.ar     1 ZINC000068711428   -0.5900
14     C14     3.7524   -4.9203    7.7738 C.ar     1 ZINC000068711428    0.6000
15     N15     4.6291   -4.0335    8.3764 N.pl3    1 ZINC000068711428   -0.6200
16     C16     5.2721   -4.3862    9.5729 C.ar     1 ZINC000068711428    0.1400
17     C17     5.6310   -5.7053    9.8047 C.ar     1 ZINC000068711428   -0.0500
18     C18     6.2639   -6.0537   10.9831 C.ar     1 ZINC000068711428   -0.1700
19     C19     6.5419   -5.0838   11.9367 C.ar     1 ZINC000068711428    0.1100
20     N20     7.1828   -5.4389   13.1290 N.3      1 ZINC000068711428   -0.4800
21     C21     8.4130   -4.6574   13.3187 C.3      1 ZINC000068711428    0.0300
22     C22     9.0502   -5.0321   14.6586 C.3      1 ZINC000068711428    0.0000
23     N23     9.3555   -6.4688   14.6710 N.4      1 ZINC000068711428   -0.3900
24     H24     9.9877   -6.6847   13.9149 H        1 ZINC000068711428    0.4200
25     C25     9.9834   -6.8246   15.9505 C.3      1 ZINC000068711428   -0.0500
26     C26     8.1142   -7.2364   14.5052 C.3      1 ZINC000068711428    0.0000
27     C27     7.4692   -6.8800   13.1641 C.3      1 ZINC000068711428    0.0200
28     C28     6.1849   -3.7613   11.7079 C.ar     1 ZINC000068711428   -0.2000
29     C29     5.5552   -3.4101   10.5260 C.ar     1 ZINC000068711428    0.1300
30     O30     5.2051   -2.1157   10.2997 O.3      1 ZINC000068711428   -0.3100
31     C31     5.5175   -1.1704   11.3248 C.3      1 ZINC000068711428    0.0300
32     N32     3.4427   -6.0468    8.3982 N.ar     1 ZINC000068711428   -0.5700
33     C33     2.6076   -6.9190    7.8535 C.ar     1 ZINC000068711428    0.2300
34     C34     2.0507   -6.6411    6.6186 C.ar     1 ZINC000068711428   -0.2100
35     Cl35    0.9518   -7.7565    5.8689 Cl       1 ZINC000068711428   -0.0200
36     C36     1.2225   -2.9153    4.2481 C.ar     1 ZINC000068711428   -0.1100
37     H37    -1.4926    0.5332    6.9145 H        1 ZINC000068711428    0.0600
38     H38    -2.8394    1.3293    6.0655 H        1 ZINC000068711428    0.0700
39     H39    -2.6840   -0.4433    6.0228 H        1 ZINC000068711428    0.0600
40     H40    -1.9190    0.5687    3.8923 H        1 ZINC000068711428    0.1000
41     H41    -0.7276    1.5453    4.7840 H        1 ZINC000068711428    0.1000
42     H42     0.5143   -0.0370    2.9577 H        1 ZINC000068711428    0.4200
43     H43     3.0198   -0.4730    2.7492 H        1 ZINC000068711428    0.1300
44     H44     4.7128   -2.2582    2.7545 H        1 ZINC000068711428    0.1400
45     H45     4.1793   -4.4622    3.7077 H        1 ZINC000068711428    0.1300
46     H46     4.7986   -3.1685    7.9714 H        1 ZINC000068711428    0.4300
47     H47     5.4155   -6.4612    9.0640 H        1 ZINC000068711428    0.1500
48     H48     6.5421   -7.0817   11.1623 H        1 ZINC000068711428    0.1300
49     H49     9.1109   -4.8758   12.5104 H        1 ZINC000068711428    0.0700
50     H50     8.1727   -3.5942   13.3149 H        1 ZINC000068711428    0.1300
51     H51     9.9704   -4.4639   14.7947 H        1 ZINC000068711428    0.1400
52     H52     8.3574   -4.8009   15.4676 H        1 ZINC000068711428    0.1400
53     H53     9.3007   -6.5910   16.7676 H        1 ZINC000068711428    0.1200
54     H54    10.2100   -7.8908   15.9600 H        1 ZINC000068711428    0.1300
55     H55    10.9052   -6.2561   16.0734 H        1 ZINC000068711428    0.1200
56     H56     8.3404   -8.3024   14.5277 H        1 ZINC000068711428    0.1400
57     H57     7.4262   -6.9938   15.3151 H        1 ZINC000068711428    0.1400
58     H58     6.5404   -7.4384   13.0474 H        1 ZINC000068711428    0.1300
59     H59     8.1515   -7.1351   12.3532 H        1 ZINC000068711428    0.0700
60     H60     6.4015   -3.0069   12.4497 H        1 ZINC000068711428    0.1400
61     H61     5.1855   -0.1786   11.0179 H        1 ZINC000068711428    0.1100
62     H62     5.0105   -1.4539   12.2472 H        1 ZINC000068711428    0.0600
63     H63     6.5946   -1.1577   11.4913 H        1 ZINC000068711428    0.0600
64     H64     2.3609   -7.8348    8.3701 H        1 ZINC000068711428    0.1900
65     H65     0.2438   -3.1002    4.6655 H        1 ZINC000068711428    0.1500
@<TRIPOS>BOND
1     1     2     1
2     1     37    1
3     1     38    1
4     1     39    1
5     2     3     1
6     2     40    1
7     2     41    1
8     3     4     2
9     3     5     am
10    5     6     1
11    5     42    1
12    6     36    ar
13    6     7     ar
14    7     8     ar
15    7     43    1
16    8     9     ar
17    8     44    1
18    9     10    ar
19    9     45    1
20    10    11    1
21    10    36    ar
22    11    12    1
23    12    34    ar
24    12    13    ar
25    13    14    ar
26    14    15    1
27    14    32    ar
28    15    16    1
29    15    46    1
30    16    29    ar
31    16    17    ar
32    17    18    ar
33    17    47    1
34    18    19    ar
35    18    48    1
36    19    20    1
37    19    28    ar
38    20    27    1
39    20    21    1
40    21    22    1
41    21    49    1
42    21    50    1
43    22    23    1
44    22    51    1
45    22    52    1
46    23    24    1
47    23    25    1
48    23    26    1
49    25    53    1
50    25    54    1
51    25    55    1
52    26    27    1
53    26    56    1
54    26    57    1
55    27    58    1
56    27    59    1
57    28    29    ar
58    28    60    1
59    29    30    1
60    30    31    1
61    31    61    1
62    31    62    1
63    31    63    1
64    32    33    ar
65    33    34    ar
66    33    64    1
67    34    35    1
68    36    65    1
@<TRIPOS>SUBSTRUCTURE
1   ZINC000068711428 1     RESIDUE    1   A     ZIN   1
