@<TRIPOS>MOLECULE
ZINC000145216714
62    66    1     0     0
SMALL
USER_CHARGES
@<TRIPOS>ATOM
1      C1      1.3847    1.4914   -0.9831 C.3      1 ZINC000145216714    0.0300
2      O2      0.8804    0.2020   -0.6293 O.3      1 ZINC000145216714   -0.3100
3      C3      1.4975   -0.4420    0.3984 C.ar     1 ZINC000145216714    0.0900
4      C4      2.5602    0.1583    1.0534 C.ar     1 ZINC000145216714   -0.1500
5      C5      3.1882   -0.4945    2.0975 C.ar     1 ZINC000145216714   -0.1100
6      C6      2.7551   -1.7533    2.4920 C.ar     1 ZINC000145216714    0.1500
7      N7      3.3920   -2.4129    3.5494 N.pl3    1 ZINC000145216714   -0.6200
8      C8      3.9127   -1.6845    4.6075 C.2      1 ZINC000145216714    0.4900
9      N9      3.7161   -0.3844    4.6756 N.2      1 ZINC000145216714   -0.5300
10     C10     4.2119    0.3419    5.6927 C.2      1 ZINC000145216714    0.1700
11     C11     3.9673    1.8047    5.7317 C.ar     1 ZINC000145216714   -0.0400
12     C12     4.4806    2.5709    6.7777 C.ar     1 ZINC000145216714   -0.0700
13     C13     4.2539    3.9332    6.8167 C.ar     1 ZINC000145216714   -0.1200
14     C14     3.5191    4.5452    5.8216 C.ar     1 ZINC000145216714   -0.0700
15     C15     2.9996    3.7888    4.7684 C.ar     1 ZINC000145216714   -0.1400
16     C16     2.2125    4.4447    3.7027 C.2      1 ZINC000145216714    0.5600
17     O17     1.7612    3.7849    2.7870 O.2      1 ZINC000145216714   -0.5000
18     N18     1.9954    5.7741    3.7465 N.am     1 ZINC000145216714   -0.6700
19     C19     1.1690    6.3766    2.8000 C.ar     1 ZINC000145216714    0.1800
20     C20     0.0676    5.6879    2.3010 C.ar     1 ZINC000145216714   -0.1300
21     C21    -0.7507    6.2803    1.3659 C.ar     1 ZINC000145216714   -0.0300
22     C22    -0.4742    7.5749    0.9177 C.ar     1 ZINC000145216714   -0.1600
23     C23    -1.3497    8.2132   -0.0845 C.2      1 ZINC000145216714    0.5600
24     N24    -1.0818    9.4617   -0.5157 N.am     1 ZINC000145216714   -0.8500
25     O25    -2.3127    7.6128   -0.5210 O.2      1 ZINC000145216714   -0.5400
26     C26     0.6327    8.2638    1.4208 C.ar     1 ZINC000145216714   -0.0600
27     C27     1.4438    7.6679    2.3599 C.ar     1 ZINC000145216714   -0.1500
28     C28     3.2304    2.4151    4.7217 C.ar     1 ZINC000145216714   -0.0100
29     C29     4.9330   -0.2418    6.6859 C.2      1 ZINC000145216714   -0.0500
30     N30     5.1632   -1.5908    6.6576 N.pl3    1 ZINC000145216714   -0.3300
31     C31     5.8292   -2.4461    7.4808 C.2      1 ZINC000145216714   -0.0600
32     C32     5.7226   -3.6834    6.9406 C.2      1 ZINC000145216714    0.0300
33     N33     5.0113   -3.5956    5.8159 N.2      1 ZINC000145216714   -0.4600
34     C34     4.6550   -2.3373    5.6249 C.2      1 ZINC000145216714    0.1400
35     C35     1.6895   -2.3576    1.8376 C.ar     1 ZINC000145216714   -0.2000
36     C36     1.0571   -1.7014    0.7952 C.ar     1 ZINC000145216714    0.1200
37     O37     0.0136   -2.2911    0.1529 O.3      1 ZINC000145216714   -0.3000
38     C38    -0.3775   -3.5887    0.6061 C.3      1 ZINC000145216714    0.0300
39     H39     2.4304    1.4042   -1.2780 H        1 ZINC000145216714    0.0500
40     H40     0.8050    1.8926   -1.8145 H        1 ZINC000145216714    0.1000
41     H41     1.3032    2.1609   -0.1269 H        1 ZINC000145216714    0.0600
42     H42     2.8987    1.1372    0.7477 H        1 ZINC000145216714    0.1400
43     H43     4.0168   -0.0250    2.6068 H        1 ZINC000145216714    0.1400
44     H44     3.4690   -3.3798    3.5418 H        1 ZINC000145216714    0.4300
45     H45     5.0564    2.0981    7.5595 H        1 ZINC000145216714    0.1300
46     H46     4.6532    4.5216    7.6296 H        1 ZINC000145216714    0.1400
47     H47     3.3451    5.6105    5.8574 H        1 ZINC000145216714    0.1300
48     H48     2.4143    6.3115    4.4369 H        1 ZINC000145216714    0.4100
49     H49    -0.1453    4.6874    2.6476 H        1 ZINC000145216714    0.1400
50     H50    -1.6052    5.7451    0.9788 H        1 ZINC000145216714    0.1400
51     H51    -0.3136    9.9407   -0.1675 H        1 ZINC000145216714    0.4000
52     H52    -1.6572    9.8812   -1.1744 H        1 ZINC000145216714    0.4100
53     H53     0.8493    9.2642    1.0761 H        1 ZINC000145216714    0.1300
54     H54     2.2994    8.1997    2.7491 H        1 ZINC000145216714    0.1300
55     H55     2.8311    1.8255    3.9097 H        1 ZINC000145216714    0.1500
56     H56     5.3236    0.3573    7.4952 H        1 ZINC000145216714    0.1700
57     H57     6.3455   -2.1867    8.3932 H        1 ZINC000145216714    0.1900
58     H58     6.1433   -4.5892    7.3515 H        1 ZINC000145216714    0.1900
59     H59     1.3524   -3.3370    2.1437 H        1 ZINC000145216714    0.1400
60     H60     0.4598   -4.2785    0.4992 H        1 ZINC000145216714    0.0500
61     H61    -0.6717   -3.5341    1.6542 H        1 ZINC000145216714    0.0500
62     H62    -1.2187   -3.9433    0.0105 H        1 ZINC000145216714    0.1000
@<TRIPOS>BOND
1     1     2     1
2     1     39    1
3     1     40    1
4     1     41    1
5     2     3     1
6     3     36    ar
7     3     4     ar
8     4     5     ar
9     4     42    1
10    5     6     ar
11    5     43    1
12    6     7     1
13    6     35    ar
14    7     8     1
15    7     44    1
16    8     34    1
17    8     9     2
18    9     10    1
19    10    11    1
20    10    29    2
21    11    28    ar
22    11    12    ar
23    12    13    ar
24    12    45    1
25    13    14    ar
26    13    46    1
27    14    15    ar
28    14    47    1
29    15    16    1
30    15    28    ar
31    16    17    2
32    16    18    am
33    18    19    1
34    18    48    1
35    19    27    ar
36    19    20    ar
37    20    21    ar
38    20    49    1
39    21    22    ar
40    21    50    1
41    22    23    1
42    22    26    ar
43    23    24    am
44    23    25    2
45    24    51    1
46    24    52    1
47    26    27    ar
48    26    53    1
49    27    54    1
50    28    55    1
51    29    30    1
52    29    56    1
53    30    34    1
54    30    31    1
55    31    32    2
56    31    57    1
57    32    33    1
58    32    58    1
59    33    34    2
60    35    36    ar
61    35    59    1
62    36    37    1
63    37    38    1
64    38    60    1
65    38    61    1
66    38    62    1
@<TRIPOS>SUBSTRUCTURE
1   ZINC000145216714 1     RESIDUE    1   A     ZIN   1
