@<TRIPOS>MOLECULE
ZINC000000967756
29    30    1     0     0
SMALL
USER_CHARGES
@<TRIPOS>ATOM
1      N1     -0.0165    1.3684    0.0096 N.pl3    1 ZINC000000967756   -0.7900
2      C2      0.0021   -0.0041    0.0020 C.2      1 ZINC000000967756    0.6300
3      N3     -1.1394   -0.6782    0.0038 N.2      1 ZINC000000967756   -0.6400
4      C4     -1.1259   -2.0141   -0.0035 C.2      1 ZINC000000967756    0.6500
5      O5     -2.1732   -2.6383   -0.0023 O.2      1 ZINC000000967756   -0.4900
6      N6      0.0541   -2.6679   -0.0127 N.am     1 ZINC000000967756   -0.5600
7      C7      0.0853   -4.1325   -0.0213 C.3      1 ZINC000000967756    0.2900
8      H8      0.5975   -4.5057    0.8655 H        1 ZINC000000967756    0.1200
9      O9     -1.2562   -4.6635   -0.0879 O.3      1 ZINC000000967756   -0.3000
10     C10    -1.1073   -6.0124   -0.5822 C.3      1 ZINC000000967756    0.0400
11     H11    -0.7773   -6.6754    0.2176 H        1 ZINC000000967756    0.1000
12     C12    -2.4266   -6.5108   -1.1756 C.3      1 ZINC000000967756    0.0900
13     O13    -3.3991   -6.6363   -0.1361 O.3      1 ZINC000000967756   -0.5600
14     C14    -0.0247   -5.9133   -1.6797 C.3      1 ZINC000000967756    0.0500
15     H15    -0.4850   -5.7951   -2.6606 H        1 ZINC000000967756    0.0900
16     O16     0.8167   -7.0682   -1.6587 O.3      1 ZINC000000967756   -0.5400
17     C17     0.7806   -4.6481   -1.3008 C.3      1 ZINC000000967756    0.0700
18     H18     0.7178   -3.9036   -2.0944 H        1 ZINC000000967756    0.0900
19     O19     2.1444   -4.9831   -1.0369 O.3      1 ZINC000000967756   -0.5400
20     C20     1.2070   -1.9634   -0.0144 C.2      1 ZINC000000967756    0.4500
21     N21     1.1744   -0.6542   -0.0127 N.2      1 ZINC000000967756   -0.6000
22     H22     0.8168    1.8648    0.0043 H        1 ZINC000000967756    0.4200
23     H23    -0.8631    1.8419    0.0162 H        1 ZINC000000967756    0.4200
24     H24    -2.7815   -5.7992   -1.9211 H        1 ZINC000000967756    0.0600
25     H25    -2.2698   -7.4817   -1.6456 H        1 ZINC000000967756    0.0600
26     H26    -4.2621   -6.9487   -0.4406 H        1 ZINC000000967756    0.3800
27     H27     0.3504   -7.8977   -1.8310 H        1 ZINC000000967756    0.3900
28     H28     2.6087   -5.3669   -1.7933 H        1 ZINC000000967756    0.4000
29     H29     2.1554   -2.4800   -0.0214 H        1 ZINC000000967756    0.2200
@<TRIPOS>BOND
1     1     2     1
2     1     22    1
3     1     23    1
4     2     21    1
5     2     3     2
6     3     4     1
7     4     5     2
8     4     6     am
9     6     7     1
10    6     20    1
11    7     8     1
12    7     17    1
13    7     9     1
14    9     10    1
15    10    11    1
16    10    12    1
17    10    14    1
18    12    13    1
19    12    24    1
20    12    25    1
21    13    26    1
22    14    15    1
23    14    16    1
24    14    17    1
25    16    27    1
26    17    18    1
27    17    19    1
28    19    28    1
29    20    21    2
30    20    29    1
@<TRIPOS>SUBSTRUCTURE
1   ZINC000000967756 1     RESIDUE    1   A     ZIN   1
