@<TRIPOS>MOLECULE
ZINC000008214614
73    72    1     0     0
SMALL
USER_CHARGES
@<TRIPOS>ATOM
1      C1     -0.6362   -0.9560   -2.5761 C.3      1 ZINC000008214614   -0.1500
2      C2     -0.5345   -2.4683   -2.3678 C.3      1 ZINC000008214614   -0.1300
3      C3      0.2069   -2.7544   -1.0604 C.3      1 ZINC000008214614   -0.1200
4      C4      0.3086   -4.2668   -0.8522 C.3      1 ZINC000008214614   -0.1200
5      C5      1.0500   -4.5529    0.4552 C.3      1 ZINC000008214614   -0.1200
6      C6      1.1517   -6.0652    0.6634 C.3      1 ZINC000008214614   -0.1200
7      C7      1.8931   -6.3513    1.9709 C.3      1 ZINC000008214614   -0.1200
8      C8      1.9948   -7.8636    2.1791 C.3      1 ZINC000008214614   -0.1200
9      C9      2.7363   -8.1497    3.4865 C.3      1 ZINC000008214614   -0.1200
10     C10     2.8380   -9.6621    3.6947 C.3      1 ZINC000008214614   -0.1200
11     C11     3.5794   -9.9482    5.0021 C.3      1 ZINC000008214614   -0.1200
12     C12     3.6811  -11.4605    5.2104 C.3      1 ZINC000008214614   -0.1200
13     C13     4.4225  -11.7466    6.5178 C.3      1 ZINC000008214614   -0.1200
14     C14     4.5242  -13.2590    6.7260 C.3      1 ZINC000008214614   -0.1200
15     C15     5.2656  -13.5450    8.0334 C.3      1 ZINC000008214614   -0.1200
16     C16     5.3673  -15.0574    8.2416 C.3      1 ZINC000008214614    0.1300
17     O17     6.0598  -15.3246    9.4628 O.3      1 ZINC000008214614   -0.7700
18     P18     6.3486  -16.8149    9.9990 P.3      1 ZINC000008214614    2.2100
19     O19     5.0187  -17.5961   10.0905 O.co2    1 ZINC000008214614   -1.0900
20     O20     7.3041  -17.5373    9.0232 O.co2    1 ZINC000008214614   -1.0900
21     O21     7.0275  -16.7386   11.4569 O.3      1 ZINC000008214614   -0.7600
22     C22     7.3102  -17.8963   12.2454 C.3      1 ZINC000008214614    0.1000
23     C23     7.9510  -17.4690   13.5674 C.3      1 ZINC000008214614   -0.0100
24     N24     6.9713  -16.7220   14.3675 N.4      1 ZINC000008214614   -0.2700
25     C25     5.7537  -17.5280   14.5280 C.3      1 ZINC000008214614   -0.0600
26     C26     7.5412  -16.4273   15.6891 C.3      1 ZINC000008214614   -0.0400
27     C27     6.6395  -15.4639   13.6858 C.3      1 ZINC000008214614   -0.0400
28     H28     0.3650   -0.5278   -2.6249 H        1 ZINC000008214614    0.0500
29     H29    -1.1644   -0.7522   -3.5075 H        1 ZINC000008214614    0.0500
30     H30    -1.1817   -0.5105   -1.7441 H        1 ZINC000008214614    0.0500
31     H31    -1.5357   -2.8965   -2.3190 H        1 ZINC000008214614    0.0600
32     H32     0.0109   -2.9138   -3.1998 H        1 ZINC000008214614    0.0600
33     H33     1.2081   -2.3263   -1.1093 H        1 ZINC000008214614    0.0600
34     H34    -0.3386   -2.3090   -0.2285 H        1 ZINC000008214614    0.0600
35     H35    -0.6926   -4.6949   -0.8033 H        1 ZINC000008214614    0.0600
36     H36     0.8540   -4.7122   -1.6842 H        1 ZINC000008214614    0.0600
37     H37     2.0512   -4.1247    0.4063 H        1 ZINC000008214614    0.0600
38     H38     0.5046   -4.1074    1.2872 H        1 ZINC000008214614    0.0600
39     H39     0.1505   -6.4934    0.7123 H        1 ZINC000008214614    0.0600
40     H40     1.6971   -6.5107   -0.1685 H        1 ZINC000008214614    0.0600
41     H41     2.8943   -5.9231    1.9220 H        1 ZINC000008214614    0.0600
42     H42     1.3477   -5.9059    2.8028 H        1 ZINC000008214614    0.0600
43     H43     0.9936   -8.2918    2.2280 H        1 ZINC000008214614    0.0600
44     H44     2.5403   -8.3091    1.3471 H        1 ZINC000008214614    0.0600
45     H45     3.7374   -7.7216    3.4376 H        1 ZINC000008214614    0.0600
46     H46     2.1908   -7.7043    4.3185 H        1 ZINC000008214614    0.0600
47     H47     1.8368  -10.0903    3.7436 H        1 ZINC000008214614    0.0600
48     H48     3.3834  -10.1075    2.8627 H        1 ZINC000008214614    0.0600
49     H49     4.5806   -9.5200    4.9533 H        1 ZINC000008214614    0.0600
50     H50     3.0339   -9.5027    5.8341 H        1 ZINC000008214614    0.0600
51     H51     2.6799  -11.8887    5.2592 H        1 ZINC000008214614    0.0600
52     H52     4.2265  -11.9060    4.3784 H        1 ZINC000008214614    0.0600
53     H53     5.4237  -11.3184    6.4689 H        1 ZINC000008214614    0.0600
54     H54     3.8771  -11.3012    7.3498 H        1 ZINC000008214614    0.0600
55     H55     3.5230  -13.6871    6.7749 H        1 ZINC000008214614    0.0700
56     H56     5.0696  -13.7044    5.8940 H        1 ZINC000008214614    0.0700
57     H57     6.2668  -13.1169    7.9845 H        1 ZINC000008214614    0.0700
58     H58     4.7202  -13.0996    8.8654 H        1 ZINC000008214614    0.0700
59     H59     4.3661  -15.4856    8.2905 H        1 ZINC000008214614    0.0500
60     H60     5.9128  -15.5028    7.4097 H        1 ZINC000008214614    0.0500
61     H61     6.3835  -18.4333   12.4477 H        1 ZINC000008214614    0.0800
62     H62     7.9960  -18.5469   11.7027 H        1 ZINC000008214614    0.1000
63     H63     8.2717  -18.3531   14.1183 H        1 ZINC000008214614    0.1400
64     H64     8.8138  -16.8345   13.3645 H        1 ZINC000008214614    0.1300
65     H65     5.9999  -18.4615   15.0339 H        1 ZINC000008214614    0.1200
66     H66     5.0268  -16.9738   15.1217 H        1 ZINC000008214614    0.1200
67     H67     5.3309  -17.7466   13.5474 H        1 ZINC000008214614    0.1300
68     H68     8.4447  -15.8293   15.5700 H        1 ZINC000008214614    0.1200
69     H69     6.8142  -15.8731   16.2828 H        1 ZINC000008214614    0.1200
70     H70     7.7874  -17.3609   16.1950 H        1 ZINC000008214614    0.1200
71     H71     6.0424  -15.6775   12.7992 H        1 ZINC000008214614    0.1400
72     H72     6.0714  -14.8237   14.3607 H        1 ZINC000008214614    0.1100
73     H73     7.5584  -14.9568   13.3914 H        1 ZINC000008214614    0.1200
@<TRIPOS>BOND
1     1     2     1
2     1     28    1
3     1     29    1
4     1     30    1
5     2     3     1
6     2     31    1
7     2     32    1
8     3     4     1
9     3     33    1
10    3     34    1
11    4     5     1
12    4     35    1
13    4     36    1
14    5     6     1
15    5     37    1
16    5     38    1
17    6     7     1
18    6     39    1
19    6     40    1
20    7     8     1
21    7     41    1
22    7     42    1
23    8     9     1
24    8     43    1
25    8     44    1
26    9     10    1
27    9     45    1
28    9     46    1
29    10    11    1
30    10    47    1
31    10    48    1
32    11    12    1
33    11    49    1
34    11    50    1
35    12    13    1
36    12    51    1
37    12    52    1
38    13    14    1
39    13    53    1
40    13    54    1
41    14    15    1
42    14    55    1
43    14    56    1
44    15    16    1
45    15    57    1
46    15    58    1
47    16    17    1
48    16    59    1
49    16    60    1
50    17    18    1
51    18    19    ar
52    18    20    ar
53    18    21    1
54    21    22    1
55    22    23    1
56    22    61    1
57    22    62    1
58    23    24    1
59    23    63    1
60    23    64    1
61    24    25    1
62    24    26    1
63    24    27    1
64    25    65    1
65    25    66    1
66    25    67    1
67    26    68    1
68    26    69    1
69    26    70    1
70    27    71    1
71    27    72    1
72    27    73    1
@<TRIPOS>SUBSTRUCTURE
1   ZINC000008214614 1     RESIDUE    1   A     ZIN   1
