@<TRIPOS>MOLECULE
ZINC000036184576
62    65    1     0     0
SMALL
USER_CHARGES
@<TRIPOS>ATOM
1      C1     -0.2492    1.4175    1.1877 C.3      1 ZINC000036184576    0.0800
2      N2     -0.2347   -0.0464    1.1328 N.am     1 ZINC000036184576   -0.5900
3      C3      1.0067   -0.7772    1.3992 C.3      1 ZINC000036184576    0.0500
4      C4     -1.3636   -0.7208    0.8371 C.2      1 ZINC000036184576    0.5100
5      O5     -2.3913   -0.1158    0.6166 O.2      1 ZINC000036184576   -0.5100
6      C6     -1.3487   -2.2266    0.7806 C.3      1 ZINC000036184576    0.0000
7      H7     -0.4371   -2.5791    0.2981 H        1 ZINC000036184576    0.1700
8      N8     -2.5459   -2.7299    0.0574 N.4      1 ZINC000036184576   -0.5100
9      H9     -3.3581   -2.1806    0.2952 H        1 ZINC000036184576    0.4400
10     H10    -2.3885   -2.7132   -0.9391 H        1 ZINC000036184576    0.4400
11     C11    -2.7060   -4.1291    0.5373 C.3      1 ZINC000036184576    0.0600
12     H12    -2.0173   -4.7924    0.0140 H        1 ZINC000036184576    0.1700
13     C13    -4.1493   -4.5986    0.3441 C.3      1 ZINC000036184576   -0.1500
14     C14    -4.4558   -4.7031   -1.1513 C.3      1 ZINC000036184576   -0.0700
15     C15    -3.3955   -5.5728   -1.8296 C.3      1 ZINC000036184576   -0.1600
16     C16    -5.8352   -5.3356   -1.3462 C.3      1 ZINC000036184576   -0.1500
17     C17    -4.4432   -3.3053   -1.7733 C.3      1 ZINC000036184576   -0.1700
18     C18    -2.3563   -4.0622    2.0301 C.3      1 ZINC000036184576   -0.0600
19     C19    -3.5953   -3.9792    2.8792 C.2      1 ZINC000036184576    0.5400
20     O20    -4.4464   -3.1162    2.8358 O.2      1 ZINC000036184576   -0.4700
21     N21    -3.5762   -5.0494    3.6968 N.am     1 ZINC000036184576   -0.6500
22     C22    -2.4502   -5.8496    3.4911 C.ar     1 ZINC000036184576    0.1700
23     C23    -2.0469   -7.0294    4.1108 C.ar     1 ZINC000036184576   -0.1200
24     C24    -0.8722   -7.6474    3.7302 C.ar     1 ZINC000036184576    0.0200
25     Cl25   -0.3778   -9.1181    4.5091 Cl       1 ZINC000036184576   -0.0300
26     C26    -0.0874   -7.1000    2.7305 C.ar     1 ZINC000036184576   -0.1200
27     C27    -0.4822   -5.9282    2.1094 C.ar     1 ZINC000036184576   -0.0400
28     C28    -1.6527   -5.3090    2.4859 C.ar     1 ZINC000036184576   -0.1400
29     C29    -1.4702   -2.8208    2.2030 C.3      1 ZINC000036184576   -0.0200
30     H30    -1.9463   -2.1046    2.8727 H        1 ZINC000036184576    0.1300
31     C31    -0.1149   -3.2127    2.7329 C.ar     1 ZINC000036184576   -0.0800
32     C32     0.8668   -3.6500    1.8637 C.ar     1 ZINC000036184576   -0.1300
33     C33     2.1106   -4.0093    2.3490 C.ar     1 ZINC000036184576   -0.0900
34     C34     2.3728   -3.9319    3.7036 C.ar     1 ZINC000036184576   -0.0900
35     C35     1.3904   -3.4942    4.5743 C.ar     1 ZINC000036184576   -0.0200
36     Cl36    1.7192   -3.3960    6.2760 Cl       1 ZINC000036184576   -0.0400
37     C37     0.1480   -3.1293    4.0875 C.ar     1 ZINC000036184576   -0.0900
38     H38     0.7470    1.7815    1.4394 H        1 ZINC000036184576    0.0900
39     H39    -0.5466    1.8146    0.2172 H        1 ZINC000036184576    0.0800
40     H40    -0.9586    1.7456    1.9475 H        1 ZINC000036184576    0.0800
41     H41     1.0767   -0.9983    2.4643 H        1 ZINC000036184576    0.0800
42     H42     1.0082   -1.7091    0.8338 H        1 ZINC000036184576    0.0800
43     H43     1.8588   -0.1680    1.0978 H        1 ZINC000036184576    0.0900
44     H44    -4.2792   -5.5751    0.8107 H        1 ZINC000036184576    0.1200
45     H45    -4.8293   -3.8823    0.8052 H        1 ZINC000036184576    0.1100
46     H46    -3.4045   -6.5686   -1.3865 H        1 ZINC000036184576    0.0700
47     H47    -3.6138   -5.6472   -2.8950 H        1 ZINC000036184576    0.0800
48     H48    -2.4127   -5.1222   -1.6908 H        1 ZINC000036184576    0.0500
49     H49    -6.5906   -4.7160   -0.8629 H        1 ZINC000036184576    0.0600
50     H50    -6.0536   -5.4101   -2.4115 H        1 ZINC000036184576    0.0700
51     H51    -5.8442   -6.3314   -0.9030 H        1 ZINC000036184576    0.0600
52     H52    -3.4144   -3.0062   -1.9739 H        1 ZINC000036184576    0.0400
53     H53    -5.0064   -3.3178   -2.7064 H        1 ZINC000036184576    0.0900
54     H54    -4.8997   -2.5962   -1.0828 H        1 ZINC000036184576    0.0700
55     H55    -4.2644   -5.2418    4.3528 H        1 ZINC000036184576    0.4300
56     H56    -2.6546   -7.4622    4.8917 H        1 ZINC000036184576    0.1500
57     H57     0.8310   -7.5860    2.4360 H        1 ZINC000036184576    0.1500
58     H58     0.1284   -5.4990    1.3288 H        1 ZINC000036184576    0.1500
59     H59     0.6621   -3.7114    0.8050 H        1 ZINC000036184576    0.1300
60     H60     2.8772   -4.3510    1.6694 H        1 ZINC000036184576    0.1500
61     H61     3.3441   -4.2133    4.0827 H        1 ZINC000036184576    0.1400
62     H62    -0.6191   -2.7876    4.7665 H        1 ZINC000036184576    0.1300
@<TRIPOS>BOND
1     1     2     1
2     1     38    1
3     1     39    1
4     1     40    1
5     2     3     1
6     2     4     am
7     3     41    1
8     3     42    1
9     3     43    1
10    4     5     2
11    4     6     1
12    6     7     1
13    6     29    1
14    6     8     1
15    8     9     1
16    8     10    1
17    8     11    1
18    11    12    1
19    11    13    1
20    11    18    1
21    13    14    1
22    13    44    1
23    13    45    1
24    14    15    1
25    14    16    1
26    14    17    1
27    15    46    1
28    15    47    1
29    15    48    1
30    16    49    1
31    16    50    1
32    16    51    1
33    17    52    1
34    17    53    1
35    17    54    1
36    18    28    1
37    18    19    1
38    18    29    1
39    19    20    2
40    19    21    am
41    21    22    1
42    21    55    1
43    22    28    ar
44    22    23    ar
45    23    24    ar
46    23    56    1
47    24    25    1
48    24    26    ar
49    26    27    ar
50    26    57    1
51    27    28    ar
52    27    58    1
53    29    30    1
54    29    31    1
55    31    37    ar
56    31    32    ar
57    32    33    ar
58    32    59    1
59    33    34    ar
60    33    60    1
61    34    35    ar
62    34    61    1
63    35    36    1
64    35    37    ar
65    37    62    1
@<TRIPOS>SUBSTRUCTURE
1   ZINC000036184576 1     RESIDUE    1   A     ZIN   1
