@<TRIPOS>MOLECULE
ZINC000005946936
64    66    1     0     0
SMALL
USER_CHARGES
@<TRIPOS>ATOM
1      C1      1.6069    1.6084    1.6632 C.3      1 ZINC000005946936   -0.1900
2      C2      1.9054    0.1267    1.4260 C.3      1 ZINC000005946936   -0.0100
3      N3      0.6425   -0.6142    1.3063 N.4      1 ZINC000005946936   -0.3900
4      H4      0.0740   -0.4439    2.1223 H        1 ZINC000005946936    0.4200
5      C5     -0.0765   -0.1657    0.1063 C.3      1 ZINC000005946936   -0.0200
6      C6     -1.4603   -0.8172    0.0676 C.3      1 ZINC000005946936   -0.1900
7      C7      0.9264   -2.0515    1.1985 C.3      1 ZINC000005946936   -0.0100
8      C8      1.5574   -2.5459    2.5016 C.3      1 ZINC000005946936   -0.1500
9      C9      1.7480   -4.0624    2.4328 C.3      1 ZINC000005946936   -0.1300
10     C10     2.3791   -4.5568    3.7359 C.3      1 ZINC000005946936    0.1500
11     H11     1.7703   -4.2331    4.5801 H        1 ZINC000005946936    0.1000
12     C12     2.4553   -6.0848    3.7181 C.3      1 ZINC000005946936   -0.1700
13     N13     3.7288   -4.0020    3.8661 N.pl3    1 ZINC000005946936   -0.7000
14     C14     4.2972   -3.8563    5.1148 C.ar     1 ZINC000005946936    0.4600
15     C15     5.6003   -3.3157    5.2612 C.ar     1 ZINC000005946936   -0.1400
16     C16     6.3594   -2.9106    4.1595 C.ar     1 ZINC000005946936   -0.1800
17     C17     7.6225   -2.3907    4.3612 C.ar     1 ZINC000005946936    0.2100
18     N18     8.3870   -1.9836    3.2646 N.pl3    1 ZINC000005946936   -0.8700
19     C19     8.1436   -2.2674    5.6531 C.ar     1 ZINC000005946936   -0.1300
20     C20     7.4208   -2.6560    6.7396 C.ar     1 ZINC000005946936   -0.0600
21     C21     6.1342   -3.1886    6.5679 C.ar     1 ZINC000005946936    0.1400
22     N22     5.3901   -3.5823    7.6100 N.ar     1 ZINC000005946936   -0.5200
23     C23     4.1794   -4.0809    7.4187 C.ar     1 ZINC000005946936    0.3800
24     C24     3.3957   -4.5012    8.5908 C.2      1 ZINC000005946936   -0.0700
25     C25     3.9127   -4.3751    9.8255 C.2      1 ZINC000005946936   -0.0700
26     C26     3.1284   -4.7958   10.9986 C.ar     1 ZINC000005946936   -0.0400
27     C27     1.8071   -4.3625   11.1530 C.ar     1 ZINC000005946936   -0.0100
28     Cl28    1.0860   -3.3268    9.9609 Cl       1 ZINC000005946936   -0.0400
29     C29     1.0784   -4.7610   12.2551 C.ar     1 ZINC000005946936   -0.1000
30     C30     1.6519   -5.5876   13.2069 C.ar     1 ZINC000005946936   -0.0100
31     Cl31    0.7272   -6.0835   14.5900 Cl       1 ZINC000005946936   -0.0400
32     C32     2.9591   -6.0210   13.0608 C.ar     1 ZINC000005946936   -0.0900
33     C33     3.6988   -5.6353   11.9614 C.ar     1 ZINC000005946936    0.0000
34     Cl34    5.3371   -6.1803   11.7800 Cl       1 ZINC000005946936   -0.0300
35     N35     3.6379   -4.2123    6.2053 N.ar     1 ZINC000005946936   -0.5700
36     H36     1.0313    1.7206    2.5820 H        1 ZINC000005946936    0.0800
37     H37     2.5439    2.1581    1.7520 H        1 ZINC000005946936    0.1100
38     H38     1.0327    2.0022    0.8245 H        1 ZINC000005946936    0.0800
39     H39     2.4809    0.0145    0.5071 H        1 ZINC000005946936    0.1300
40     H40     2.4795   -0.2671    2.2647 H        1 ZINC000005946936    0.1300
41     H41    -0.1860    0.9185    0.1324 H        1 ZINC000005946936    0.1300
42     H42     0.4854   -0.4529   -0.7825 H        1 ZINC000005946936    0.1300
43     H43    -1.3517   -1.9017    0.0819 H        1 ZINC000005946936    0.0800
44     H44    -2.0365   -0.4983    0.9361 H        1 ZINC000005946936    0.0800
45     H45    -1.9784   -0.5159   -0.8428 H        1 ZINC000005946936    0.1100
46     H46    -0.0022   -2.5925    1.0163 H        1 ZINC000005946936    0.1300
47     H47     1.6159   -2.2247    0.3722 H        1 ZINC000005946936    0.1300
48     H48     2.5250   -2.0641    2.6424 H        1 ZINC000005946936    0.0900
49     H49     0.9037   -2.2995    3.3383 H        1 ZINC000005946936    0.0900
50     H50     0.7805   -4.5442    2.2920 H        1 ZINC000005946936    0.0900
51     H51     2.4018   -4.3088    1.5961 H        1 ZINC000005946936    0.0800
52     H52     3.0641   -6.4084    2.8739 H        1 ZINC000005946936    0.0600
53     H53     2.9049   -6.4370    4.6465 H        1 ZINC000005946936    0.0700
54     H54     1.4511   -6.4975    3.6212 H        1 ZINC000005946936    0.0700
55     H55     4.2227   -3.7372    3.0744 H        1 ZINC000005946936    0.4100
56     H56     5.9617   -3.0036    3.1597 H        1 ZINC000005946936    0.1200
57     H57     8.0297   -2.0669    2.3666 H        1 ZINC000005946936    0.4000
58     H58     9.2749   -1.6178    3.4013 H        1 ZINC000005946936    0.4000
59     H59     9.1336   -1.8584    5.7909 H        1 ZINC000005946936    0.1400
60     H60     7.8370   -2.5549    7.7310 H        1 ZINC000005946936    0.1400
61     H61     2.4051   -4.9110    8.4594 H        1 ZINC000005946936    0.1400
62     H62     4.9032   -3.9654    9.9569 H        1 ZINC000005946936    0.1500
63     H63     0.0584   -4.4271   12.3759 H        1 ZINC000005946936    0.1500
64     H64     3.3994   -6.6658   13.8070 H        1 ZINC000005946936    0.1600
@<TRIPOS>BOND
1     1     2     1
2     1     36    1
3     1     37    1
4     1     38    1
5     2     3     1
6     2     39    1
7     2     40    1
8     3     4     1
9     3     5     1
10    3     7     1
11    5     6     1
12    5     41    1
13    5     42    1
14    6     43    1
15    6     44    1
16    6     45    1
17    7     8     1
18    7     46    1
19    7     47    1
20    8     9     1
21    8     48    1
22    8     49    1
23    9     10    1
24    9     50    1
25    9     51    1
26    10    11    1
27    10    12    1
28    10    13    1
29    12    52    1
30    12    53    1
31    12    54    1
32    13    14    1
33    13    55    1
34    14    35    ar
35    14    15    ar
36    15    21    ar
37    15    16    ar
38    16    17    ar
39    16    56    1
40    17    18    1
41    17    19    ar
42    18    57    1
43    18    58    1
44    19    20    ar
45    19    59    1
46    20    21    ar
47    20    60    1
48    21    22    ar
49    22    23    ar
50    23    24    1
51    23    35    ar
52    24    25    2
53    24    61    1
54    25    26    1
55    25    62    1
56    26    33    ar
57    26    27    ar
58    27    28    1
59    27    29    ar
60    29    30    ar
61    29    63    1
62    30    31    1
63    30    32    ar
64    32    33    ar
65    32    64    1
66    33    34    1
@<TRIPOS>SUBSTRUCTURE
1   ZINC000005946936 1     RESIDUE    1   A     ZIN   1
