@<TRIPOS>MOLECULE
ZINC000029053046
50    53    1     0     0
SMALL
USER_CHARGES
@<TRIPOS>ATOM
1      C1      2.8925    1.0268    0.6249 C.3      1 ZINC000029053046   -0.0700
2      C2      2.4105   -0.3963    0.5084 C.2      1 ZINC000029053046    0.0100
3      C3      2.5859   -1.2034   -0.5570 C.2      1 ZINC000029053046   -0.0400
4      N4      1.9987   -2.4034   -0.2526 N.pl3    1 ZINC000029053046   -0.5700
5      C5      1.4787   -2.2856    1.0038 C.2      1 ZINC000029053046    0.2600
6      C6      0.7522   -3.3385    1.7413 C.ar     1 ZINC000029053046   -0.1600
7      C7      0.6345   -4.6298    1.2197 C.ar     1 ZINC000029053046    0.2100
8      N8     -0.0231   -5.5445    1.9102 N.ar     1 ZINC000029053046   -0.5600
9      C9     -0.5695   -5.2564    3.0836 C.ar     1 ZINC000029053046    0.5800
10     N10    -1.2479   -6.2481    3.7685 N.pl3    1 ZINC000029053046   -0.6900
11     C11    -1.3543   -7.5923    3.1958 C.3      1 ZINC000029053046    0.1300
12     C12    -2.1479   -8.4905    4.1468 C.3      1 ZINC000029053046    0.1100
13     N13    -2.2543   -9.8347    3.5741 N.pl3    1 ZINC000029053046   -0.7100
14     C14    -2.9341  -10.8285    4.2604 C.ar     1 ZINC000029053046    0.4300
15     C15    -3.5175  -10.5369    5.4915 C.ar     1 ZINC000029053046   -0.2400
16     C16    -4.1888  -11.5208    6.1668 C.ar     1 ZINC000029053046    0.0200
17     C17    -4.2648  -12.7971    5.5887 C.ar     1 ZINC000029053046   -0.1500
18     C18    -4.9567  -13.8575    6.2576 C.1      1 ZINC000029053046    0.2600
19     N19    -5.5056  -14.6987    6.7882 N.1      1 ZINC000029053046   -0.4200
20     C20    -3.6565  -13.0180    4.3516 C.ar     1 ZINC000029053046    0.2100
21     N21    -3.0247  -12.0418    3.7334 N.ar     1 ZINC000029053046   -0.5400
22     N22    -0.4853   -4.0489    3.6201 N.ar     1 ZINC000029053046   -0.5400
23     C23     0.1628   -3.0705    2.9945 C.ar     1 ZINC000029053046    0.3000
24     C24     0.2552   -1.7215    3.5978 C.ar     1 ZINC000029053046    0.0000
25     C25    -0.6611   -0.7317    3.2430 C.ar     1 ZINC000029053046   -0.0500
26     C26    -0.5704    0.5235    3.8081 C.ar     1 ZINC000029053046   -0.1000
27     C27     0.4280    0.8024    4.7263 C.ar     1 ZINC000029053046   -0.0100
28     Cl28    0.5349    2.3843    5.4334 Cl       1 ZINC000029053046   -0.0600
29     C29     1.3408   -0.1755    5.0831 C.ar     1 ZINC000029053046   -0.1000
30     C30     1.2565   -1.4371    4.5285 C.ar     1 ZINC000029053046    0.0200
31     Cl31    2.4012   -2.6628    4.9768 Cl       1 ZINC000029053046   -0.0600
32     N32     1.7407   -1.0752    1.4474 N.2      1 ZINC000029053046   -0.4500
33     H33     3.8976    1.0367    1.0466 H        1 ZINC000029053046    0.0700
34     H34     2.9085    1.4870   -0.3631 H        1 ZINC000029053046    0.0700
35     H35     2.2200    1.5861    1.2754 H        1 ZINC000029053046    0.0700
36     H36     3.0933   -0.9518   -1.4765 H        1 ZINC000029053046    0.1800
37     H37     1.9595   -3.1876   -0.8222 H        1 ZINC000029053046    0.4200
38     H38     1.0748   -4.8765    0.2649 H        1 ZINC000029053046    0.1700
39     H39    -1.6532   -6.0536    4.6280 H        1 ZINC000029053046    0.4200
40     H40    -1.8662   -7.5384    2.2350 H        1 ZINC000029053046    0.0800
41     H41    -0.3562   -8.0064    3.0530 H        1 ZINC000029053046    0.0800
42     H42    -1.6360   -8.5444    5.1076 H        1 ZINC000029053046    0.0800
43     H43    -3.1460   -8.0763    4.2896 H        1 ZINC000029053046    0.0800
44     H44    -1.8489  -10.0292    2.7146 H        1 ZINC000029053046    0.4100
45     H45    -3.4406   -9.5441    5.9095 H        1 ZINC000029053046    0.1400
46     H46    -4.6491  -11.3193    7.1228 H        1 ZINC000029053046    0.1400
47     H47    -3.7076  -13.9960    3.8963 H        1 ZINC000029053046    0.1700
48     H48    -1.4401   -0.9474    2.5267 H        1 ZINC000029053046    0.1300
49     H49    -1.2794    1.2905    3.5335 H        1 ZINC000029053046    0.1400
50     H50     2.1174    0.0476    5.7997 H        1 ZINC000029053046    0.1400
@<TRIPOS>BOND
1     1     2     1
2     1     33    1
3     1     34    1
4     1     35    1
5     2     32    1
6     2     3     2
7     3     4     1
8     3     36    1
9     4     5     1
10    4     37    1
11    5     6     1
12    5     32    2
13    6     23    ar
14    6     7     ar
15    7     8     ar
16    7     38    1
17    8     9     ar
18    9     10    1
19    9     22    ar
20    10    11    1
21    10    39    1
22    11    12    1
23    11    40    1
24    11    41    1
25    12    13    1
26    12    42    1
27    12    43    1
28    13    14    1
29    13    44    1
30    14    21    ar
31    14    15    ar
32    15    16    ar
33    15    45    1
34    16    17    ar
35    16    46    1
36    17    18    1
37    17    20    ar
38    18    19    3
39    20    21    ar
40    20    47    1
41    22    23    ar
42    23    24    1
43    24    30    ar
44    24    25    ar
45    25    26    ar
46    25    48    1
47    26    27    ar
48    26    49    1
49    27    28    1
50    27    29    ar
51    29    30    ar
52    29    50    1
53    30    31    1
@<TRIPOS>SUBSTRUCTURE
1   ZINC000029053046 1     RESIDUE    1   A     ZIN   1
