@<TRIPOS>MOLECULE
ZINC000003871767
44    45    1     0     0
SMALL
USER_CHARGES
@<TRIPOS>ATOM
1      C1     -0.0187    1.5299    0.0105 C.3      1 ZINC000003871767   -0.1600
2      C2      0.0021   -0.0041    0.0020 C.3      1 ZINC000003871767    0.0900
3      H3      0.5140   -0.3359   -0.8983 H        1 ZINC000003871767    0.0800
4      C4     -1.4408   -0.5158   -0.0285 C.3      1 ZINC000003871767   -0.1500
5      C5     -1.4808   -1.9485   -0.5553 C.3      1 ZINC000003871767   -0.1300
6      C6     -2.0183   -1.9719   -1.9858 C.3      1 ZINC000003871767   -0.1000
7      C7     -0.9472   -2.4662   -2.9276 C.2      1 ZINC000003871767   -0.1200
8      C8      0.0817   -1.7025   -3.1905 C.2      1 ZINC000003871767   -0.1600
9      C9      1.1761   -2.0752   -4.1315 C.3      1 ZINC000003871767   -0.0400
10     H10     1.4902   -1.1574   -4.6698 H        1 ZINC000003871767    0.0700
11     C11     0.7043   -3.0722   -5.2002 C.3      1 ZINC000003871767   -0.1500
12     C12     1.8639   -4.0505   -5.4305 C.3      1 ZINC000003871767    0.1100
13     H13     2.2572   -3.9176   -6.4383 H        1 ZINC000003871767    0.0500
14     O14     1.4002   -5.3926   -5.2680 O.3      1 ZINC000003871767   -0.5600
15     C15     2.9622   -3.7577   -4.4006 C.3      1 ZINC000003871767   -0.1100
16     C16     2.4154   -2.6589   -3.4622 C.3      1 ZINC000003871767   -0.0700
17     H17     3.1795   -1.8806   -3.3680 H        1 ZINC000003871767    0.0900
18     C18     2.1407   -3.2750   -2.1001 C.3      1 ZINC000003871767    0.1400
19     H19     3.0293   -3.8365   -1.7824 H        1 ZINC000003871767    0.0700
20     O20     1.0415   -4.1802   -2.1706 O.3      1 ZINC000003871767   -0.5300
21     C21     1.8663   -2.2116   -1.0669 C.2      1 ZINC000003871767   -0.1000
22     C22     1.6069   -2.5665    0.1831 C.2      1 ZINC000003871767   -0.2200
23     C23     1.2884   -1.6499    1.2648 C.2      1 ZINC000003871767    0.5200
24     O24     1.5587   -2.0301    2.3977 O.2      1 ZINC000003871767   -0.4800
25     O25     0.6861   -0.4748    1.1765 O.3      1 ZINC000003871767   -0.3500
26     H26     1.0039    1.9071    0.0027 H        1 ZINC000003871767    0.0700
27     H27    -0.5459    1.8909   -0.8726 H        1 ZINC000003871767    0.0800
28     H28    -0.5289    1.8814    0.9072 H        1 ZINC000003871767    0.0700
29     H29    -1.8585   -0.4856    0.9780 H        1 ZINC000003871767    0.0800
30     H30    -2.0332    0.1288   -0.6800 H        1 ZINC000003871767    0.0900
31     H31    -0.4810   -2.3771   -0.5375 H        1 ZINC000003871767    0.0800
32     H32    -2.1347   -2.5480    0.0834 H        1 ZINC000003871767    0.0700
33     H33    -2.8767   -2.6443   -2.0372 H        1 ZINC000003871767    0.0700
34     H34    -2.3258   -0.9700   -2.2812 H        1 ZINC000003871767    0.0700
35     H35    -1.0412   -3.4467   -3.3663 H        1 ZINC000003871767    0.1200
36     H36     0.1241   -0.7315   -2.6933 H        1 ZINC000003871767    0.0900
37     H37    -0.1786   -3.6118   -4.8737 H        1 ZINC000003871767    0.0800
38     H38     0.4872   -2.5376   -6.1287 H        1 ZINC000003871767    0.0600
39     H39     0.7091   -5.6484   -5.8940 H        1 ZINC000003871767    0.3700
40     H40     3.1843   -4.6573   -3.8268 H        1 ZINC000003871767    0.0800
41     H41     3.8621   -3.4035   -4.9020 H        1 ZINC000003871767    0.0700
42     H42     0.8241   -4.6014   -1.3277 H        1 ZINC000003871767    0.3700
43     H43     1.9149   -1.1743   -1.3565 H        1 ZINC000003871767    0.1200
44     H44     1.6371   -3.6393    0.4093 H        1 ZINC000003871767    0.1500
@<TRIPOS>BOND
1     1     2     1
2     1     26    1
3     1     27    1
4     1     28    1
5     2     3     1
6     2     25    1
7     2     4     1
8     4     5     1
9     4     29    1
10    4     30    1
11    5     6     1
12    5     31    1
13    5     32    1
14    6     7     1
15    6     33    1
16    6     34    1
17    7     8     2
18    7     35    1
19    8     9     1
20    8     36    1
21    9     10    1
22    9     16    1
23    9     11    1
24    11    12    1
25    11    37    1
26    11    38    1
27    12    13    1
28    12    14    1
29    12    15    1
30    14    39    1
31    15    16    1
32    15    40    1
33    15    41    1
34    16    17    1
35    16    18    1
36    18    19    1
37    18    20    1
38    18    21    1
39    20    42    1
40    21    22    2
41    21    43    1
42    22    23    1
43    22    44    1
44    23    24    2
45    23    25    1
@<TRIPOS>SUBSTRUCTURE
1   ZINC000003871767 1     RESIDUE    1   A     ZIN   1
