@<TRIPOS>MOLECULE
ZINC000066099716
  51   54    0    0    0
SMALL
USER_CHARGES
NO_NAME
@<TRIPOS>ATOM
    1 C1       -0.0187     1.5258     0.0104 C.3    1 <0>      -0.1900
    2 C2        0.0021    -0.0041     0.0020 C.3    1 <0>       0.1400
    3 C3        0.7421    -0.5109     1.2415 C.3    1 <0>      -0.1500
    4 O4       -1.3386    -0.4987     0.0122 O.3    1 <0>      -0.5400
    5 C5        0.7182    -0.4975    -1.2568 C.3    1 <0>      -0.1500
    6 H6        1.7394    -0.1173    -1.2842 H      1 <0>       0.1200
    7 C7       -0.0523    -0.0564    -2.5197 C.3    1 <0>       0.0000
    8 N8        0.0806    -1.2005    -3.4580 N.4    1 <0>      -0.5200
    9 H9       -0.6553    -1.1785    -4.1479 H      1 <0>       0.4300
   10 H10       0.9847    -1.1864    -3.9059 H      1 <0>       0.4300
   11 C11      -0.0545    -2.4001    -2.5922 C.3    1 <0>      -0.0200
   12 C12       0.7191    -2.0394    -1.3031 C.3    1 <0>       0.1500
   13 H13       0.2087    -2.4445    -0.4293 H      1 <0>       0.1500
   14 N14       2.0903    -2.5505    -1.3727 N.pl3  1 <0>      -0.7200
   15 C15       2.3661    -3.8409    -0.9730 C.ar   1 <0>       0.4400
   16 C16       3.6873    -4.3517    -1.0272 C.ar   1 <0>      -0.2200
   17 C17       4.7620    -3.5812    -1.4831 C.ar   1 <0>      -0.0800
   18 C18       6.0133    -4.1238    -1.5136 C.ar   1 <0>      -0.1400
   19 C19       6.2351    -5.4335    -1.0974 C.ar   1 <0>      -0.0900
   20 C20       5.2096    -6.2108    -0.6478 C.ar   1 <0>      -0.1000
   21 C21       3.9104    -5.6850    -0.6030 C.ar   1 <0>       0.1900
   22 N22       2.8689    -6.4074    -0.1690 N.ar   1 <0>      -0.4700
   23 C23       1.6574    -5.8826    -0.1389 C.ar   1 <0>       0.4400
   24 C24       0.5344    -6.7164     0.3487 C.ar   1 <0>      -0.2100
   25 C25      -0.7582    -6.1961     0.3885 C.ar   1 <0>      -0.0400
   26 C26      -1.8018    -6.9784     0.8442 C.ar   1 <0>      -0.0700
   27 F27      -3.0546    -6.4742     0.8823 F      1 <0>      -0.1700
   28 C28      -1.5676    -8.2790     1.2619 C.ar   1 <0>      -0.0800
   29 C29      -0.2897    -8.8032     1.2265 C.ar   1 <0>      -0.2300
   30 C30       0.7653    -8.0318     0.7659 C.ar   1 <0>       0.3000
   31 O31       2.0214    -8.5470     0.7306 O.3    1 <0>      -0.6400
   32 N32       1.4044    -4.6326    -0.5235 N.ar   1 <0>      -0.5800
   33 H33       1.0039     1.9031     0.0027 H      1 <0>       0.0700
   34 H34      -0.5459     1.8868    -0.8726 H      1 <0>       0.0600
   35 H35      -0.5289     1.8773     0.9072 H      1 <0>       0.0800
   36 H36       0.2319    -0.1594     2.1383 H      1 <0>       0.0800
   37 H37       0.7568    -1.6008     1.2356 H      1 <0>       0.0700
   38 H38       1.7647    -0.1336     1.2338 H      1 <0>       0.0800
   39 H39      -1.8677    -0.2163    -0.7464 H      1 <0>       0.3700
   40 H40      -1.1013     0.1208    -2.2826 H      1 <0>       0.1300
   41 H41       0.3985     0.8396    -2.9465 H      1 <0>       0.1400
   42 H42      -1.1038    -2.5897    -2.3664 H      1 <0>       0.1500
   43 H43       0.3946    -3.2689    -3.0735 H      1 <0>       0.1400
   44 H44       2.8042    -1.9811    -1.6999 H      1 <0>       0.4100
   45 H45       4.6023    -2.5640    -1.8089 H      1 <0>       0.1100
   46 H46       6.8432    -3.5292    -1.8659 H      1 <0>       0.1200
   47 H47       7.2351    -5.8401    -1.1316 H      1 <0>       0.1300
   48 H48       5.3964    -7.2255    -0.3283 H      1 <0>       0.1400
   49 H49      -0.9435    -5.1828     0.0639 H      1 <0>       0.1100
   50 H50      -2.3877    -8.8854     1.6170 H      1 <0>       0.1100
   51 H51      -0.1136    -9.8172     1.5540 H      1 <0>       0.1100
@<TRIPOS>BOND
   1    1    2 1
   2    1   33 1
   3    1   34 1
   4    1   35 1
   5    2    3 1
   6    2    4 1
   7    2    5 1
   8    3   36 1
   9    3   37 1
  10    3   38 1
  11    4   39 1
  12    5    6 1
  13    5   12 1
  14    5    7 1
  15    7    8 1
  16    7   40 1
  17    7   41 1
  18    8    9 1
  19    8   10 1
  20    8   11 1
  21   11   12 1
  22   11   42 1
  23   11   43 1
  24   12   13 1
  25   12   14 1
  26   14   15 1
  27   14   44 1
  28   15   32 ar
  29   15   16 ar
  30   16   21 ar
  31   16   17 ar
  32   17   18 ar
  33   17   45 1
  34   18   19 ar
  35   18   46 1
  36   19   20 ar
  37   19   47 1
  38   20   21 ar
  39   20   48 1
  40   21   22 ar
  41   22   23 ar
  42   23   24 1
  43   23   32 ar
  44   24   30 ar
  45   24   25 ar
  46   25   26 ar
  47   25   49 1
  48   26   27 1
  49   26   28 ar
  50   28   29 ar
  51   28   50 1
  52   29   30 ar
  53   29   51 1
  54   30   31 1
