@<TRIPOS>MOLECULE
ZINC000095564436
62    67    1     0     0
SMALL
USER_CHARGES
@<TRIPOS>ATOM
1      C1     -0.0187    1.5258    0.0104 C.3      1 ZINC000095564436   -0.1800
2      C2      0.0021   -0.0041    0.0020 C.3      1 ZINC000095564436    0.0200
3      C3     -1.4333   -0.5336    0.0129 C.3      1 ZINC000095564436   -0.1800
4      N4      0.6897   -0.4778   -1.2066 N.4      1 ZINC000095564436   -0.3900
5      H5      0.2015   -0.1435   -2.0239 H        1 ZINC000095564436    0.4200
6      C6      0.7088   -1.9465   -1.2148 C.3      1 ZINC000095564436   -0.0100
7      C7      1.4084   -2.4407   -2.4829 C.3      1 ZINC000095564436    0.0300
8      N8      2.7806   -1.9155   -2.5182 N.3      1 ZINC000095564436   -0.5400
9      C9      3.5052   -2.4146   -3.6946 C.3      1 ZINC000095564436    0.1500
10     C10     4.9652   -2.0616   -3.5724 C.2      1 ZINC000095564436   -0.0700
11     C11     5.9231   -2.8153   -3.0012 C.2      1 ZINC000095564436    0.0100
12     N12     7.0827   -2.1488   -3.0972 N.2      1 ZINC000095564436   -0.4700
13     C13     6.8621   -1.0082   -3.7110 C.2      1 ZINC000095564436    0.2600
14     C14     7.8773    0.0165   -4.0151 C.ar     1 ZINC000095564436    0.0400
15     C15     7.5249    1.1835   -4.6630 C.ar     1 ZINC000095564436   -0.0800
16     C16     8.4802    2.1677   -4.9584 C.ar     1 ZINC000095564436   -0.0100
17     C17     8.0462    3.4006   -5.6553 C.ar     1 ZINC000095564436   -0.0100
18     C18     8.4122    4.6638   -5.1568 C.ar     1 ZINC000095564436   -0.0900
19     C19     9.1931    5.1144   -4.0054 C.2      1 ZINC000095564436   -0.2100
20     C20     9.2049    6.4575   -4.0400 C.2      1 ZINC000095564436    0.0600
21     N21     8.4942    6.9012   -5.1212 N.pl3    1 ZINC000095564436   -0.6000
22     C22     7.9956    5.8278   -5.8258 C.ar     1 ZINC000095564436    0.1000
23     C23     7.2236    5.7168   -6.9778 C.ar     1 ZINC000095564436   -0.1200
24     C24     6.8704    4.4735   -7.4588 C.ar     1 ZINC000095564436   -0.1000
25     C25     7.2787    3.3197   -6.8107 C.ar     1 ZINC000095564436   -0.1300
26     C26     9.8094    2.0253   -4.6212 C.ar     1 ZINC000095564436   -0.0500
27     C27    10.2557    0.8653   -3.9585 C.ar     1 ZINC000095564436    0.1000
28     N28    11.4279    0.4434   -3.5158 N.2      1 ZINC000095564436   -0.2900
29     N29    11.2630   -0.8157   -2.9271 N.pl3    1 ZINC000095564436   -0.4200
30     C30     9.9759   -1.1888   -3.0002 C.2      1 ZINC000095564436    0.1000
31     C31     9.2777   -0.1834   -3.6293 C.ar     1 ZINC000095564436   -0.1800
32     O32     5.5550   -0.9353   -4.0201 O.3      1 ZINC000095564436   -0.2000
33     C33     2.7782   -0.4461   -2.4854 C.3      1 ZINC000095564436    0.0200
34     C34     2.0674    0.0313   -1.2171 C.3      1 ZINC000095564436    0.0000
35     H35     1.0039    1.9031    0.0027 H        1 ZINC000095564436    0.0800
36     H36    -0.5459    1.8868   -0.8726 H        1 ZINC000095564436    0.0800
37     H37    -0.5289    1.8773    0.9072 H        1 ZINC000095564436    0.1100
38     H38     0.5293   -0.3651    0.8851 H        1 ZINC000095564436    0.1400
39     H39    -1.9605   -0.1726   -0.8702 H        1 ZINC000095564436    0.0800
40     H40    -1.4185   -1.6235    0.0069 H        1 ZINC000095564436    0.0800
41     H41    -1.9435   -0.1821    0.9097 H        1 ZINC000095564436    0.1100
42     H42     1.2472   -2.3077   -0.3386 H        1 ZINC000095564436    0.1400
43     H43    -0.3138   -2.3233   -1.1936 H        1 ZINC000095564436    0.1400
44     H44     1.4359   -3.5303   -2.4819 H        1 ZINC000095564436    0.1300
45     H45     0.8625   -2.0911   -3.3591 H        1 ZINC000095564436    0.0600
46     H46     3.3970   -3.4975   -3.7555 H        1 ZINC000095564436    0.1200
47     H47     3.0949   -1.9572   -4.5950 H        1 ZINC000095564436    0.0700
48     H48     5.7826   -3.7845   -2.5461 H        1 ZINC000095564436    0.1900
49     H49     6.4953    1.3416   -4.9479 H        1 ZINC000095564436    0.1300
50     H50     9.6699    4.4865   -3.2672 H        1 ZINC000095564436    0.1500
51     H51     9.7014    7.0922   -3.3210 H        1 ZINC000095564436    0.1700
52     H52     8.3609    7.8328   -5.3564 H        1 ZINC000095564436    0.4200
53     H53     6.8997    6.6068   -7.4968 H        1 ZINC000095564436    0.1200
54     H54     6.2709    4.3986   -8.3539 H        1 ZINC000095564436    0.1300
55     H55     6.9933    2.3538   -7.2006 H        1 ZINC000095564436    0.1300
56     H56    10.5124    2.8075   -4.8668 H        1 ZINC000095564436    0.1400
57     H57    11.9733   -1.3407   -2.5262 H        1 ZINC000095564436    0.4500
58     H58     9.5604   -2.1131   -2.6268 H        1 ZINC000095564436    0.2000
59     H59     3.8050   -0.0806   -2.4863 H        1 ZINC000095564436    0.1200
60     H60     2.2548   -0.0636   -3.3617 H        1 ZINC000095564436    0.0600
61     H61     2.0518    1.1210   -1.1977 H        1 ZINC000095564436    0.1400
62     H62     2.5990   -0.3401   -0.3410 H        1 ZINC000095564436    0.1400
@<TRIPOS>BOND
1     1     2     1
2     1     35    1
3     1     36    1
4     1     37    1
5     2     3     1
6     2     4     1
7     2     38    1
8     3     39    1
9     3     40    1
10    3     41    1
11    4     5     1
12    4     34    1
13    4     6     1
14    6     7     1
15    6     42    1
16    6     43    1
17    7     8     1
18    7     44    1
19    7     45    1
20    8     9     1
21    8     33    1
22    9     10    1
23    9     46    1
24    9     47    1
25    10    32    1
26    10    11    2
27    11    12    1
28    11    48    1
29    12    13    2
30    13    14    1
31    13    32    1
32    14    31    ar
33    14    15    ar
34    15    16    ar
35    15    49    1
36    16    17    1
37    16    26    ar
38    17    25    ar
39    17    18    ar
40    18    22    ar
41    18    19    1
42    19    20    2
43    19    50    1
44    20    21    1
45    20    51    1
46    21    22    1
47    21    52    1
48    22    23    ar
49    23    24    ar
50    23    53    1
51    24    25    ar
52    24    54    1
53    25    55    1
54    26    27    ar
55    26    56    1
56    27    31    ar
57    27    28    2
58    28    29    1
59    29    30    1
60    29    57    1
61    30    31    2
62    30    58    1
63    33    34    1
64    33    59    1
65    33    60    1
66    34    61    1
67    34    62    1
@<TRIPOS>SUBSTRUCTURE
1   ZINC000095564436 1     RESIDUE    1   A     ZIN   1
