@<TRIPOS>MOLECULE
ZINC000013673611
44    47    1     0     0
SMALL
USER_CHARGES
@<TRIPOS>ATOM
1      C1      0.4130    0.6814    9.0220 C.3      1 ZINC000013673611   -0.1200
2      C2      1.1093   -0.5582    8.5223 C.ar     1 ZINC000013673611   -0.0700
3      C3      2.1740   -1.0849    9.2298 C.ar     1 ZINC000013673611   -0.1300
4      C4      2.8156   -2.2224    8.7746 C.ar     1 ZINC000013673611   -0.1000
5      C5      2.3943   -2.8358    7.6113 C.ar     1 ZINC000013673611   -0.1300
6      C6      1.3250   -2.3092    6.8983 C.ar     1 ZINC000013673611    0.1600
7      N7      0.8954   -2.9286    5.7193 N.am     1 ZINC000013673611   -0.6800
8      C8      0.9795   -4.2677    5.5924 C.2      1 ZINC000013673611    0.7000
9      O9      1.3384   -4.9464    6.5353 O.2      1 ZINC000013673611   -0.5500
10     N10     0.6657   -4.8545    4.4204 N.am     1 ZINC000013673611   -0.6800
11     C11     0.6465   -6.2504    4.3197 C.ar     1 ZINC000013673611    0.1700
12     C12     1.0162   -6.8650    3.1295 C.ar     1 ZINC000013673611   -0.1400
13     C13     0.9983   -8.2399    3.0276 C.ar     1 ZINC000013673611   -0.0800
14     C14     0.6087   -9.0139    4.1203 C.ar     1 ZINC000013673611   -0.0600
15     C15     0.5890  -10.4922    4.0138 C.2      1 ZINC000013673611   -0.0200
16     C16     1.6608  -11.2052    3.6730 C.2      1 ZINC000013673611   -0.2000
17     S17     1.3005  -12.9206    3.6396 S.3      1 ZINC000013673611    0.1800
18     C18    -0.3721  -12.6525    4.1075 C.ar     1 ZINC000013673611    0.1100
19     N19    -1.3776  -13.5138    4.3119 N.ar     1 ZINC000013673611   -0.5300
20     C20    -2.5700  -13.0919    4.6633 C.ar     1 ZINC000013673611    0.3600
21     N21    -2.8402  -11.8103    4.8326 N.ar     1 ZINC000013673611   -0.5800
22     C22    -1.9096  -10.8843    4.6532 C.ar     1 ZINC000013673611    0.4900
23     N23    -2.2069   -9.5453    4.8341 N.pl3    1 ZINC000013673611   -0.8300
24     C24    -0.6037  -11.2870    4.2793 C.ar     1 ZINC000013673611   -0.2200
25     C25     0.2383   -8.3945    5.3135 C.ar     1 ZINC000013673611   -0.0800
26     C26     0.2634   -7.0193    5.4118 C.ar     1 ZINC000013673611   -0.1200
27     C27     0.6794   -1.1703    7.3610 C.ar     1 ZINC000013673611   -0.1500
28     H28    -0.4009    0.3971    9.6889 H        1 ZINC000013673611    0.0700
29     H29     1.1249    1.3049    9.5628 H        1 ZINC000013673611    0.0700
30     H30     0.0115    1.2387    8.1757 H        1 ZINC000013673611    0.0700
31     H31     2.5056   -0.6069   10.1397 H        1 ZINC000013673611    0.1200
32     H32     3.6472   -2.6312    9.3293 H        1 ZINC000013673611    0.1300
33     H33     2.8960   -3.7238    7.2561 H        1 ZINC000013673611    0.1300
34     H34     0.5371   -2.3941    4.9934 H        1 ZINC000013673611    0.4100
35     H35     0.4530   -4.3095    3.6467 H        1 ZINC000013673611    0.4100
36     H36     1.3174   -6.2651    2.2835 H        1 ZINC000013673611    0.1300
37     H37     1.2853   -8.7171    2.1022 H        1 ZINC000013673611    0.1300
38     H38     2.6277  -10.7811    3.4459 H        1 ZINC000013673611    0.1800
39     H39    -3.3557  -13.8164    4.8188 H        1 ZINC000013673611    0.2000
40     H40    -2.9763   -9.2868    5.3652 H        1 ZINC000013673611    0.4100
41     H41    -1.6460   -8.8650    4.4297 H        1 ZINC000013673611    0.4100
42     H42    -0.0642   -8.9915    6.1612 H        1 ZINC000013673611    0.1300
43     H43    -0.0234   -6.5391    6.3357 H        1 ZINC000013673611    0.1400
44     H44    -0.1526   -0.7586    6.8090 H        1 ZINC000013673611    0.1200
@<TRIPOS>BOND
1     1     2     1
2     1     28    1
3     1     29    1
4     1     30    1
5     2     27    ar
6     2     3     ar
7     3     4     ar
8     3     31    1
9     4     5     ar
10    4     32    1
11    5     6     ar
12    5     33    1
13    6     7     1
14    6     27    ar
15    7     8     am
16    7     34    1
17    8     9     2
18    8     10    am
19    10    11    1
20    10    35    1
21    11    26    ar
22    11    12    ar
23    12    13    ar
24    12    36    1
25    13    14    ar
26    13    37    1
27    14    15    1
28    14    25    ar
29    15    24    1
30    15    16    2
31    16    17    1
32    16    38    1
33    17    18    1
34    18    24    ar
35    18    19    ar
36    19    20    ar
37    20    21    ar
38    20    39    1
39    21    22    ar
40    22    23    1
41    22    24    ar
42    23    40    1
43    23    41    1
44    25    26    ar
45    25    42    1
46    26    43    1
47    27    44    1
@<TRIPOS>SUBSTRUCTURE
1   ZINC000013673611 1     RESIDUE    1   A     ZIN   1
