@<TRIPOS>MOLECULE
ZINC000003932776
  72   75    0    0    0
SMALL
NO_CHARGES
@<TRIPOS>ATOM
   1 C1            -0.0156     1.3021     0.0092 C.2     
   2 C2             0.0021    -0.0041     0.0020 C.2     
   3 C3            -1.2810    -0.7971     0.0089 C.3     
   4 H4            -2.1042    -0.1026     0.1947 H       
   5 C5            -1.4560    -1.3992    -1.3825 C.3     
   6 C6            -1.2869    -1.8584     1.0883 C.3     
   7 H7            -1.6521    -1.4408     2.0388 H       
   8 C8            -2.1787    -3.0565     0.6674 C.3     
   9 H9            -2.9733    -2.7683    -0.0155 H       
  10 C10           -2.8247    -3.6983     1.9065 C.3     
  11 C11           -3.7808    -4.7790     1.4716 C.ar    
  12 C12           -5.1047    -4.4705     1.2205 C.ar    
  13 C13           -5.9817    -5.4618     0.8217 C.ar    
  14 C14           -5.5348    -6.7614     0.6735 C.ar    
  15 C15           -4.2107    -7.0698     0.9237 C.ar    
  16 C16           -3.3327    -6.0777     1.3184 C.ar    
  17 N17           -1.2541    -4.0135     0.0433 N.am    
  18 C18            0.0289    -3.7366     0.3672 C.2     
  19 O19            0.9925    -4.3591    -0.0245 O.2     
  20 C20            0.0581    -2.5477     1.2905 C.3     
  21 O21            0.0768    -3.0973     2.6310 O.3     
  22 C22           -0.0088    -2.2753     3.6916 C.2     
  23 O23           -0.2831    -1.0964     3.5745 O.2     
  24 C24            0.2691    -2.8328     5.0310 C.2     
  25 C25            0.6632    -4.0989     5.1257 C.2     
  26 C26            0.9718    -4.7190     6.4644 C.3     
  27 H27            0.4555    -5.6793     6.5429 H       
  28 O28            0.5235    -3.8611     7.5153 O.3     
  29 C29            2.4775    -4.9471     6.5960 C.3     
  30 C30            3.2592    -3.9415     5.7508 C.3     
  31 C31            3.6188    -4.5576     4.3960 C.3     
  32 C32            4.8164    -3.8213     3.7862 C.3     
  33 H33            5.0232    -2.9218     4.3656 H       
  34 C34            6.0428    -4.7367     3.8152 C.3     
  35 C35            4.5062    -3.4343     2.3364 C.3     
  36 C36            3.2740    -2.5668     2.3050 C.2     
  37 C37            2.5128    -2.5543     1.2351 C.2     
  38 C38            1.2817    -1.6869     1.2108 C.3     
  39 H39            1.3109    -1.0518     2.1059 H       
  40 C40            1.3059    -0.7737    -0.0146 C.3     
  41 H41            1.3870    -1.3672    -0.9242 H       
  42 O42            2.4082     0.1327     0.0748 O.3     
  43 H43            0.9122     1.8548     0.0033 H       
  44 H44           -0.9582     1.8293     0.0165 H       
  45 H45           -0.6089    -2.0475    -1.6070 H       
  46 H46           -2.3771    -1.9812    -1.4133 H       
  47 H47           -1.5069    -0.5991    -2.1209 H       
  48 H48           -2.0487    -4.1320     2.5372 H       
  49 H49           -3.3670    -2.9380     2.4685 H       
  50 H50           -5.4538    -3.4551     1.3363 H       
  51 H51           -7.0162    -5.2209     0.6262 H       
  52 H52           -6.2201    -7.5360     0.3626 H       
  53 H53           -3.8615    -8.0853     0.8083 H       
  54 H54           -2.2982    -6.3186     1.5139 H       
  55 H55           -1.5269    -4.7472    -0.5281 H       
  56 H56            0.1529    -2.2241     5.9112 H       
  57 H57            0.7656    -4.7051     4.2337 H       
  58 H58           -0.4271    -3.6845     7.5004 H       
  59 H59            2.7670    -4.8355     7.6438 H       
  60 H60            2.7199    -5.9601     6.2701 H       
  61 H61            2.6676    -3.0410     5.5990 H       
  62 H62            4.1800    -3.6730     6.2757 H       
  63 H63            3.8748    -5.6089     4.5344 H       
  64 H64            2.7653    -4.4817     3.7234 H       
  65 H65            5.8369    -5.6383     3.2383 H       
  66 H66            6.8960    -4.2149     3.3818 H       
  67 H67            6.2687    -5.0088     4.8463 H       
  68 H68            5.3494    -2.8841     1.9185 H       
  69 H69            4.3327    -4.3354     1.7480 H       
  70 H70            3.0273    -1.9599     3.1632 H       
  71 H71            2.7700    -3.1550     0.3734 H       
  72 H72            2.4794     0.7405    -0.6739 H       
@<TRIPOS>BOND
   1    1    2 2
   2    1   43 1
   3    1   44 1
   4    2   40 1
   5    2    3 1
   6    3    4 1
   7    3    5 1
   8    3    6 1
   9    5   45 1
  10    5   46 1
  11    5   47 1
  12    6    7 1
  13    6   20 1
  14    6    8 1
  15    8    9 1
  16    8   10 1
  17    8   17 1
  18   10   11 1
  19   10   48 1
  20   10   49 1
  21   11   16 ar
  22   11   12 ar
  23   12   13 ar
  24   12   50 1
  25   13   14 ar
  26   13   51 1
  27   14   15 ar
  28   14   52 1
  29   15   16 ar
  30   15   53 1
  31   16   54 1
  32   17   18 am
  33   17   55 1
  34   18   19 2
  35   18   20 1
  36   20   38 1
  37   20   21 1
  38   21   22 1
  39   22   23 2
  40   22   24 1
  41   24   25 2
  42   24   56 1
  43   25   26 1
  44   25   57 1
  45   26   27 1
  46   26   28 1
  47   26   29 1
  48   28   58 1
  49   29   30 1
  50   29   59 1
  51   29   60 1
  52   30   31 1
  53   30   61 1
  54   30   62 1
  55   31   32 1
  56   31   63 1
  57   31   64 1
  58   32   33 1
  59   32   34 1
  60   32   35 1
  61   34   65 1
  62   34   66 1
  63   34   67 1
  64   35   36 1
  65   35   68 1
  66   35   69 1
  67   36   37 2
  68   36   70 1
  69   37   38 1
  70   37   71 1
  71   38   39 1
  72   38   40 1
  73   40   41 1
  74   40   42 1
  75   42   72 1
