@<TRIPOS>MOLECULE
ZINC000026674761
81    85    1     0     0
SMALL
USER_CHARGES
@<TRIPOS>ATOM
1      O1     -8.2187    1.0171  -11.4731 O.co2    1 ZINC000026674761   -0.7000
2      C2     -7.4350    0.1888  -11.0414 C.2      1 ZINC000026674761    0.5200
3      O3     -6.6834   -0.3947  -11.8037 O.co2    1 ZINC000026674761   -0.6800
4      C4     -7.3911   -0.1093   -9.5648 C.3      1 ZINC000026674761   -0.0500
5      O5     -8.3545    0.6995   -8.8868 O.3      1 ZINC000026674761   -0.2600
6      C6     -8.1484    0.9250   -7.5645 C.ar     1 ZINC000026674761    0.2100
7      C7     -7.0024    0.4362   -6.9484 C.ar     1 ZINC000026674761   -0.2300
8      C8     -6.7896    0.6628   -5.6069 C.ar     1 ZINC000026674761   -0.0100
9      C9     -7.7274    1.3857   -4.8650 C.ar     1 ZINC000026674761   -0.1800
10     C10    -7.5031    1.6313   -3.4270 C.2      1 ZINC000026674761    0.5900
11     O11    -6.3732    1.7873   -3.0060 O.2      1 ZINC000026674761   -0.5400
12     N12    -8.5507    1.6827   -2.5806 N.am     1 ZINC000026674761   -0.5900
13     C13    -8.3516    1.4253   -1.1522 C.3      1 ZINC000026674761    0.1300
14     C14    -8.0744    2.7249   -0.4414 C.ar     1 ZINC000026674761   -0.0800
15     C15    -6.7705    3.1133   -0.1982 C.ar     1 ZINC000026674761   -0.0800
16     C16    -6.5110    4.3049    0.4536 C.ar     1 ZINC000026674761   -0.1100
17     C17    -7.5584    5.1123    0.8650 C.ar     1 ZINC000026674761    0.0200
18     O18    -7.5750    6.3123    1.5155 O.3      1 ZINC000026674761   -0.3200
19     C19    -8.8951    6.8464    1.3033 C.3      1 ZINC000026674761    0.2100
20     O20    -9.7121    5.6756    1.1168 O.3      1 ZINC000026674761   -0.3100
21     C21    -8.8727    4.7208    0.6198 C.ar     1 ZINC000026674761    0.0200
22     C22    -9.1250    3.5289   -0.0390 C.ar     1 ZINC000026674761   -0.0900
23     C23    -9.8884    1.9959   -3.0890 C.3      1 ZINC000026674761    0.1700
24     H24    -9.8747    2.9742   -3.5694 H        1 ZINC000026674761    0.1000
25     C25   -10.3025    0.9497   -4.0916 C.2      1 ZINC000026674761    0.5100
26     O26    -9.5538    0.0328   -4.3555 O.2      1 ZINC000026674761   -0.4900
27     N27   -11.5047    1.0331   -4.6951 N.am     1 ZINC000026674761   -0.7200
28     C28   -11.9072    0.0161   -5.6697 C.3      1 ZINC000026674761    0.1500
29     C29   -12.5217   -1.1780   -4.9366 C.3      1 ZINC000026674761   -0.1200
30     C30   -12.9420   -2.2401   -5.9545 C.3      1 ZINC000026674761   -0.1200
31     C31   -13.9737   -1.6457   -6.9154 C.3      1 ZINC000026674761   -0.1100
32     C32   -13.3591   -0.4516   -7.6485 C.3      1 ZINC000026674761   -0.1200
33     C33   -12.9388    0.6105   -6.6306 C.3      1 ZINC000026674761   -0.1200
34     C34   -10.8696    2.0116   -1.9453 C.ar     1 ZINC000026674761   -0.1400
35     C35   -10.9645    0.9197   -1.1024 C.ar     1 ZINC000026674761   -0.0800
36     C36   -11.8631    0.9316   -0.0532 C.ar     1 ZINC000026674761   -0.1500
37     C37   -12.6703    2.0406    0.1547 C.ar     1 ZINC000026674761    0.1300
38     O38   -13.5547    2.0550    1.1864 O.3      1 ZINC000026674761   -0.2800
39     C39   -14.3533    3.2300    1.3400 C.3      1 ZINC000026674761   -0.5400
40     P40   -15.6557    3.2506    0.0645 P.3      1 ZINC000026674761    2.2100
41     O41   -16.5472    1.9983    0.2186 O.2      1 ZINC000026674761   -1.0700
42     O42   -15.0045    3.2501   -1.3365 O.3      1 ZINC000026674761   -1.0500
43     O43   -16.5554    4.5745    0.2376 O.3      1 ZINC000026674761   -0.9000
44     C44   -12.5727    3.1352   -0.6922 C.ar     1 ZINC000026674761   -0.1300
45     C45   -11.6692    3.1202   -1.7371 C.ar     1 ZINC000026674761   -0.0700
46     C46    -8.8781    1.8758   -5.4882 C.ar     1 ZINC000026674761   -0.0700
47     C47    -9.0812    1.6491   -6.8312 C.ar     1 ZINC000026674761   -0.1800
48     C48    -7.7075   -1.5649   -9.3366 C.2      1 ZINC000026674761    0.5000
49     O49    -6.9522   -2.4258   -9.7548 O.co2    1 ZINC000026674761   -0.6900
50     O50    -8.7188   -1.8817   -8.7337 O.co2    1 ZINC000026674761   -0.6900
51     H51    -6.3957    0.1110   -9.1791 H        1 ZINC000026674761    0.0600
52     H52    -6.2780   -0.1225   -7.5225 H        1 ZINC000026674761    0.1300
53     H53    -5.8992    0.2821   -5.1288 H        1 ZINC000026674761    0.1100
54     H54    -9.2498    0.9683   -0.7368 H        1 ZINC000026674761    0.1200
55     H55    -7.5059    0.7507   -1.0190 H        1 ZINC000026674761    0.0900
56     H56    -5.9525    2.4846   -0.5176 H        1 ZINC000026674761    0.1400
57     H57    -5.4911    4.6060    0.6422 H        1 ZINC000026674761    0.1300
58     H58    -9.2256    7.4089    2.1765 H        1 ZINC000026674761    0.1200
59     H59    -8.9158    7.4737    0.4121 H        1 ZINC000026674761    0.0800
60     H60   -10.1427    3.2258   -0.2357 H        1 ZINC000026674761    0.1500
61     H61   -12.1035    1.7664   -4.4840 H        1 ZINC000026674761    0.4000
62     H62   -11.0339   -0.3135   -6.2326 H        1 ZINC000026674761    0.1000
63     H63   -11.7868   -1.6015   -4.2520 H        1 ZINC000026674761    0.0600
64     H64   -13.3950   -0.8485   -4.3737 H        1 ZINC000026674761    0.0600
65     H65   -12.0687   -2.5696   -6.5174 H        1 ZINC000026674761    0.0700
66     H66   -13.3799   -3.0908   -5.4322 H        1 ZINC000026674761    0.0500
67     H67   -14.2731   -2.4023   -7.6405 H        1 ZINC000026674761    0.0600
68     H68   -14.8470   -1.3161   -6.3525 H        1 ZINC000026674761    0.0600
69     H69   -12.4858   -0.7811   -8.2114 H        1 ZINC000026674761    0.0800
70     H70   -14.0940   -0.0281   -8.3330 H        1 ZINC000026674761    0.0600
71     H71   -13.8121    0.9400   -6.0677 H        1 ZINC000026674761    0.0600
72     H72   -12.5010    1.4612   -7.1529 H        1 ZINC000026674761    0.0700
73     H73   -10.3360    0.0566   -1.2646 H        1 ZINC000026674761    0.1300
74     H74   -11.9374    0.0782    0.6045 H        1 ZINC000026674761    0.1300
75     H75   -14.8127    3.2304    2.3284 H        1 ZINC000026674761    0.1000
76     H76   -13.7243    4.1136    1.2313 H        1 ZINC000026674761    0.0600
77     H77   -17.2701    4.6517   -0.4092 H        1 ZINC000026674761    0.4100
78     H78   -13.2002    3.9996   -0.5326 H        1 ZINC000026674761    0.1300
79     H79   -11.5926    3.9722   -2.3964 H        1 ZINC000026674761    0.1300
80     H80    -9.6053    2.4350   -4.9182 H        1 ZINC000026674761    0.1300
81     H81    -9.9700    2.0278   -7.3137 H        1 ZINC000026674761    0.1200
@<TRIPOS>BOND
1     1     2     ar
2     2     3     ar
3     2     4     1
4     4     5     1
5     4     48    1
6     4     51    1
7     5     6     1
8     6     47    ar
9     6     7     ar
10    7     8     ar
11    7     52    1
12    8     9     ar
13    8     53    1
14    9     10    1
15    9     46    ar
16    10    11    2
17    10    12    am
18    12    13    1
19    12    23    1
20    13    14    1
21    13    54    1
22    13    55    1
23    14    22    ar
24    14    15    ar
25    15    16    ar
26    15    56    1
27    16    17    ar
28    16    57    1
29    17    21    ar
30    17    18    1
31    18    19    1
32    19    20    1
33    19    58    1
34    19    59    1
35    20    21    1
36    21    22    ar
37    22    60    1
38    23    24    1
39    23    25    1
40    23    34    1
41    25    26    2
42    25    27    am
43    27    28    1
44    27    61    1
45    28    33    1
46    28    29    1
47    28    62    1
48    29    30    1
49    29    63    1
50    29    64    1
51    30    31    1
52    30    65    1
53    30    66    1
54    31    32    1
55    31    67    1
56    31    68    1
57    32    33    1
58    32    69    1
59    32    70    1
60    33    71    1
61    33    72    1
62    34    45    ar
63    34    35    ar
64    35    36    ar
65    35    73    1
66    36    37    ar
67    36    74    1
68    37    38    1
69    37    44    ar
70    38    39    1
71    39    40    1
72    39    75    1
73    39    76    1
74    40    41    2
75    40    42    1
76    40    43    1
77    43    77    1
78    44    45    ar
79    44    78    1
80    45    79    1
81    46    47    ar
82    46    80    1
83    47    81    1
84    48    49    ar
85    48    50    ar
@<TRIPOS>SUBSTRUCTURE
1   ZINC000026674761 1     RESIDUE    1   A     ZIN   1
