@<TRIPOS>MOLECULE
ZINC000029511639
56    60    1     0     0
SMALL
USER_CHARGES
@<TRIPOS>ATOM
1      C1     -0.9494    2.1940   -0.8932 C.3      1 ZINC000029511639   -0.1800
2      C2     -0.6741    0.7127   -0.9269 C.2      1 ZINC000029511639    0.5100
3      O3      0.4417    0.3089   -1.1776 O.2      1 ZINC000029511639   -0.5400
4      N4     -1.6678   -0.1632   -0.6785 N.am     1 ZINC000029511639   -0.6200
5      C5     -3.0260    0.3116   -0.3794 C.3      1 ZINC000029511639    0.0900
6      C6     -4.0020   -0.3419   -1.3656 C.3      1 ZINC000029511639    0.0900
7      N7     -3.7468   -1.7891   -1.3895 N.am     1 ZINC000029511639   -0.6000
8      C8     -4.7407   -2.6650   -1.1420 C.2      1 ZINC000029511639    0.5700
9      O9     -5.8601   -2.2605   -0.8962 O.2      1 ZINC000029511639   -0.5200
10     C10    -4.4691   -4.1187   -1.1694 C.ar     1 ZINC000029511639   -0.0600
11     C11    -4.0578   -4.8362    0.0367 C.ar     1 ZINC000029511639   -0.0700
12     C12    -3.9039   -4.1820    1.2630 C.ar     1 ZINC000029511639   -0.1000
13     C13    -3.5188   -4.8922    2.3618 C.ar     1 ZINC000029511639   -0.1000
14     C14    -3.2765   -6.2615    2.2769 C.ar     1 ZINC000029511639   -0.1000
15     C15    -3.4167   -6.9289    1.0994 C.ar     1 ZINC000029511639   -0.0800
16     C16    -3.8132   -6.2299   -0.0570 C.ar     1 ZINC000029511639    0.1400
17     N17    -3.9592   -6.8551   -1.2221 N.ar     1 ZINC000029511639   -0.4600
18     C18    -4.3319   -6.2315   -2.3352 C.ar     1 ZINC000029511639    0.1900
19     C19    -4.6009   -4.8533   -2.3392 C.ar     1 ZINC000029511639   -0.1000
20     C20    -4.9991   -4.4150   -3.7270 C.3      1 ZINC000029511639   -0.0800
21     C21    -4.9528   -5.6723   -4.6055 C.3      1 ZINC000029511639   -0.0900
22     C22    -4.5321   -6.7919   -3.6863 C.2      1 ZINC000029511639   -0.0900
23     C23    -4.3625   -8.0778   -4.0383 C.2      1 ZINC000029511639   -0.0500
24     C24    -4.4634   -8.4735   -5.4539 C.ar     1 ZINC000029511639   -0.0600
25     C25    -3.8732   -7.6866   -6.4469 C.ar     1 ZINC000029511639   -0.1100
26     C26    -3.9715   -8.0637   -7.7698 C.ar     1 ZINC000029511639   -0.1200
27     C27    -4.6527   -9.2177   -8.1152 C.ar     1 ZINC000029511639   -0.1100
28     C28    -5.2400  -10.0017   -7.1376 C.ar     1 ZINC000029511639   -0.1200
29     C29    -5.1448   -9.6407   -5.8099 C.ar     1 ZINC000029511639   -0.1000
30     C30    -2.3885   -2.2639   -1.6886 C.3      1 ZINC000029511639    0.0900
31     C31    -1.4138   -1.6105   -0.7079 C.3      1 ZINC000029511639    0.1000
32     H32    -0.0325    2.7392   -1.1171 H        1 ZINC000029511639    0.0900
33     H33    -1.7086    2.4394   -1.6359 H        1 ZINC000029511639    0.0900
34     H34    -1.3064    2.4748    0.0977 H        1 ZINC000029511639    0.0900
35     H35    -3.2947    0.0334    0.6397 H        1 ZINC000029511639    0.0800
36     H36    -3.0669    1.3954   -0.4882 H        1 ZINC000029511639    0.1000
37     H37    -5.0266   -0.1564   -1.0435 H        1 ZINC000029511639    0.1100
38     H38    -3.8482    0.0731   -2.3617 H        1 ZINC000029511639    0.0800
39     H39    -4.0886   -3.1206    1.3394 H        1 ZINC000029511639    0.1200
40     H40    -3.4000   -4.3870    3.3089 H        1 ZINC000029511639    0.1300
41     H41    -2.9718   -6.8024    3.1606 H        1 ZINC000029511639    0.1400
42     H42    -3.2243   -7.9906    1.0517 H        1 ZINC000029511639    0.1400
43     H43    -6.0085   -4.0040   -3.7146 H        1 ZINC000029511639    0.0900
44     H44    -4.2958   -3.6709   -4.1009 H        1 ZINC000029511639    0.0900
45     H45    -5.9393   -5.8789   -5.0203 H        1 ZINC000029511639    0.0900
46     H46    -4.2250   -5.5456   -5.4070 H        1 ZINC000029511639    0.0900
47     H47    -4.1521   -8.8210   -3.2835 H        1 ZINC000029511639    0.1400
48     H48    -3.3419   -6.7854   -6.1789 H        1 ZINC000029511639    0.1300
49     H49    -3.5160   -7.4567   -8.5382 H        1 ZINC000029511639    0.1200
50     H50    -4.7267   -9.5078   -9.1528 H        1 ZINC000029511639    0.1200
51     H51    -5.7707  -10.9006   -7.4147 H        1 ZINC000029511639    0.1200
52     H52    -5.6034  -10.2536   -5.0481 H        1 ZINC000029511639    0.1300
53     H53    -2.3476   -3.3477   -1.5798 H        1 ZINC000029511639    0.1000
54     H54    -2.1198   -1.9857   -2.7077 H        1 ZINC000029511639    0.0800
55     H55    -0.3897   -1.7968   -1.0311 H        1 ZINC000029511639    0.1100
56     H56    -1.5662   -2.0236    0.2892 H        1 ZINC000029511639    0.0700
@<TRIPOS>BOND
1     1     2     1
2     1     32    1
3     1     33    1
4     1     34    1
5     2     3     2
6     2     4     am
7     4     31    1
8     4     5     1
9     5     6     1
10    5     35    1
11    5     36    1
12    6     7     1
13    6     37    1
14    6     38    1
15    7     8     am
16    7     30    1
17    8     9     2
18    8     10    1
19    10    19    ar
20    10    11    ar
21    11    16    ar
22    11    12    ar
23    12    13    ar
24    12    39    1
25    13    14    ar
26    13    40    1
27    14    15    ar
28    14    41    1
29    15    16    ar
30    15    42    1
31    16    17    ar
32    17    18    ar
33    18    22    1
34    18    19    ar
35    19    20    1
36    20    21    1
37    20    43    1
38    20    44    1
39    21    22    1
40    21    45    1
41    21    46    1
42    22    23    2
43    23    24    1
44    23    47    1
45    24    29    ar
46    24    25    ar
47    25    26    ar
48    25    48    1
49    26    27    ar
50    26    49    1
51    27    28    ar
52    27    50    1
53    28    29    ar
54    28    51    1
55    29    52    1
56    30    31    1
57    30    53    1
58    30    54    1
59    31    55    1
60    31    56    1
@<TRIPOS>SUBSTRUCTURE
1   ZINC000029511639 1     RESIDUE    1   A     ZIN   1
