@<TRIPOS>MOLECULE
ZINC000001081533
  43   45    0    0    0
SMALL
USER_CHARGES
NO_NAME
@<TRIPOS>ATOM
    1 C1       -0.0173     1.4248     0.0099 C.3    1 <0>       0.0200
    2 O2        0.0021    -0.0041     0.0020 O.3    1 <0>      -0.3000
    3 C3        0.6251    -0.6177     1.0403 C.ar   1 <0>       0.2300
    4 C4        1.2002     0.1484     2.0481 C.ar   1 <0>      -0.3300
    5 C5        1.8374    -0.4664     3.1104 C.ar   1 <0>       0.2600
    6 O6        2.3993     0.2795     4.0950 O.3    1 <0>      -0.2800
    7 C7        2.2964     1.6995     3.9722 C.3    1 <0>       0.0200
    8 C8        1.8979    -1.8644     3.1627 C.ar   1 <0>      -0.2900
    9 C9        2.5659    -2.5599     4.2758 C.2    1 <0>       0.4300
   10 O10       3.0882    -1.9404     5.1884 O.2    1 <0>      -0.4600
   11 C11       2.5780    -3.9746     4.2461 C.2    1 <0>      -0.3100
   12 C12       1.9846    -4.6289     3.2117 C.2    1 <0>       0.2100
   13 C13       2.0073    -6.1037     3.1988 C.ar   1 <0>      -0.0700
   14 C14       2.6249    -6.8036     4.2383 C.ar   1 <0>      -0.0700
   15 C15       2.6451    -8.1820     4.2244 C.ar   1 <0>      -0.1800
   16 C16       2.0535    -8.8774     3.1794 C.ar   1 <0>       0.1300
   17 O17       2.0766   -10.2356     3.1703 O.3    1 <0>      -0.3000
   18 C18       2.7264   -10.8808     4.2674 C.3    1 <0>       0.0200
   19 C19       1.4350    -8.1854     2.1389 C.ar   1 <0>       0.1000
   20 O20       0.8558    -8.8701     1.1166 O.3    1 <0>      -0.3000
   21 C21       0.2403    -8.0970     0.0844 C.3    1 <0>       0.0200
   22 C22       1.4058    -6.8045     2.1492 C.ar   1 <0>      -0.1400
   23 O23       1.3786    -3.9836     2.2024 O.3    1 <0>      -0.2200
   24 C24       1.3152    -2.6365     2.1427 C.ar   1 <0>       0.2300
   25 C25       0.6769    -2.0025     1.0886 C.ar   1 <0>      -0.2200
   26 H26       1.0053     1.8021     0.0021 H      1 <0>       0.0600
   27 H27      -0.5445     1.7859    -0.8732 H      1 <0>       0.1100
   28 H28      -0.5275     1.7763     0.9067 H      1 <0>       0.0600
   29 H29       1.1495     1.2261     2.0009 H      1 <0>       0.1500
   30 H30       2.7799     2.0204     3.0495 H      1 <0>       0.0600
   31 H31       1.2452     1.9871     3.9506 H      1 <0>       0.0600
   32 H32       2.7855     2.1742     4.8228 H      1 <0>       0.1100
   33 H33       3.0555    -4.5310     5.0390 H      1 <0>       0.1600
   34 H34       3.0867    -6.2649     5.0525 H      1 <0>       0.1400
   35 H35       3.1228    -8.7219     5.0286 H      1 <0>       0.1500
   36 H36       2.6732   -11.9616     4.1367 H      1 <0>       0.1000
   37 H37       3.7706   -10.5703     4.3047 H      1 <0>       0.0600
   38 H38       2.2312   -10.6025     5.1977 H      1 <0>       0.0600
   39 H39      -0.1818    -8.7645    -0.6668 H      1 <0>       0.1000
   40 H40      -0.5528    -7.4845     0.5131 H      1 <0>       0.0600
   41 H41       0.9863    -7.4523    -0.3804 H      1 <0>       0.0600
   42 H42       0.9271    -6.2673     1.3438 H      1 <0>       0.1500
   43 H43       0.2230    -2.5872     0.3022 H      1 <0>       0.1500
@<TRIPOS>BOND
   1    1    2 1
   2    1   26 1
   3    1   27 1
   4    1   28 1
   5    2    3 1
   6    3   25 ar
   7    3    4 ar
   8    4    5 ar
   9    4   29 1
  10    5    6 1
  11    5    8 ar
  12    6    7 1
  13    7   30 1
  14    7   31 1
  15    7   32 1
  16    8   24 ar
  17    8    9 1
  18    9   10 2
  19    9   11 1
  20   11   12 2
  21   11   33 1
  22   12   13 1
  23   12   23 1
  24   13   22 ar
  25   13   14 ar
  26   14   15 ar
  27   14   34 1
  28   15   16 ar
  29   15   35 1
  30   16   17 1
  31   16   19 ar
  32   17   18 1
  33   18   36 1
  34   18   37 1
  35   18   38 1
  36   19   20 1
  37   19   22 ar
  38   20   21 1
  39   21   39 1
  40   21   40 1
  41   21   41 1
  42   22   42 1
  43   23   24 1
  44   24   25 ar
  45   25   43 1
