@<TRIPOS>MOLECULE
ZINC000003797930
  57   61    0    0    0
SMALL
USER_CHARGES
NO_NAME
@<TRIPOS>ATOM
    1 C1       -0.0178     1.4608     0.0101 C.3    1 <0>       0.0800
    2 N2        0.0021    -0.0041     0.0020 N.pl3  1 <0>      -0.4800
    3 C3        0.0078    -0.7756    -1.1193 C.2    1 <0>       0.1000
    4 C4        0.0272    -2.0937    -0.7697 C.2    1 <0>      -0.1400
    5 C5        0.0390    -3.2475    -1.6846 C.2    1 <0>      -0.0200
    6 C6        1.1165    -3.7121    -2.4297 C.2    1 <0>      -0.0400
    7 C7        2.4773    -3.1505    -2.4636 C.2    1 <0>      -0.1200
    8 C8        3.4356    -3.2757    -1.5013 C.2    1 <0>       0.0900
    9 N9        4.5635    -2.6200    -1.8895 N.pl3  1 <0>      -0.4800
   10 C10       5.7982    -2.5416    -1.1049 C.3    1 <0>       0.1200
   11 C11       5.8029    -1.2469    -0.2896 C.3    1 <0>      -0.1300
   12 C12       7.0924    -1.1650     0.5299 C.3    1 <0>      -0.1400
   13 S13       7.0980     0.3666     1.4944 S.3    1 <0>       0.0800
   14 C14       8.6482     0.2049     2.3163 C.cat  1 <0>       0.4800
   15 N15       9.3426     1.2929     2.6494 N.pl3  1 <0>      -0.7400
   16 N16       9.1265    -1.0054     2.6049 N.pl3  1 <0>      -0.7600
   17 H17       9.9799    -1.0944     3.0573 H      1 <0>       0.4300
   18 H18       8.6212    -1.7971     2.3625 H      1 <0>       0.4400
   19 C19       4.3781    -2.0403    -3.1275 C.ar   1 <0>       0.1000
   20 C20       5.1971    -1.2767    -3.9524 C.ar   1 <0>      -0.1300
   21 C21       4.7226    -0.8253    -5.1651 C.ar   1 <0>      -0.0900
   22 C22       3.4315    -1.1244    -5.5747 C.ar   1 <0>      -0.1400
   23 C23       2.6043    -1.8791    -4.7716 C.ar   1 <0>      -0.0700
   24 C24       3.0730    -2.3482    -3.5466 C.ar   1 <0>      -0.0800
   25 C25       0.6203    -4.8839    -3.1806 C.2    1 <0>       0.5600
   26 O26       1.2740    -5.5635    -3.9466 O.2    1 <0>      -0.4500
   27 N27      -0.6746    -5.0727    -2.8750 N.am   1 <0>      -0.6900
   28 C28      -1.0904    -4.1494    -1.9916 C.2    1 <0>       0.5500
   29 O29      -2.2107    -4.0648    -1.5293 O.2    1 <0>      -0.4400
   30 C30       0.0340    -2.1368     0.7032 C.ar   1 <0>      -0.0800
   31 C31       0.0519    -3.1678     1.6397 C.ar   1 <0>      -0.0700
   32 C32       0.0535    -2.8677     2.9846 C.ar   1 <0>      -0.1400
   33 C33       0.0369    -1.5466     3.4072 C.ar   1 <0>      -0.1000
   34 C34       0.0190    -0.5165     2.4917 C.ar   1 <0>      -0.1300
   35 C35       0.0236    -0.7983     1.1297 C.ar   1 <0>       0.0900
   36 H36       1.0048     1.8381     0.0023 H      1 <0>       0.0700
   37 H37      -0.5450     1.8219    -0.8730 H      1 <0>       0.0900
   38 H38      -0.5280     1.8123     0.9069 H      1 <0>       0.0900
   39 H39      -0.0015    -0.4009    -2.1322 H      1 <0>       0.1700
   40 H40       3.3174    -3.8134    -0.5721 H      1 <0>       0.1700
   41 H41       5.8549    -3.3959    -0.4304 H      1 <0>       0.1000
   42 H42       6.6566    -2.5512    -1.7765 H      1 <0>       0.1000
   43 H43       5.7461    -0.3926    -0.9640 H      1 <0>       0.0900
   44 H44       4.9444    -1.2373     0.3820 H      1 <0>       0.0900
   45 H45       7.1491    -2.0194     1.2044 H      1 <0>       0.1100
   46 H46       7.9509    -1.1746    -0.1417 H      1 <0>       0.1200
   47 H47       8.9945     2.1736     2.4394 H      1 <0>       0.4500
   48 H48      10.1960     1.2039     3.1019 H      1 <0>       0.4300
   49 H49       6.2037    -1.0375    -3.6429 H      1 <0>       0.1200
   50 H50       5.3621    -0.2327    -5.8025 H      1 <0>       0.1300
   51 H51       3.0727    -0.7638    -6.5274 H      1 <0>       0.1300
   52 H52       1.5993    -2.1099    -5.0925 H      1 <0>       0.1200
   53 H53      -1.2305    -5.7798    -3.2380 H      1 <0>       0.4300
   54 H54       0.0642    -4.1972     1.3134 H      1 <0>       0.1200
   55 H55       0.0674    -3.6649     3.7131 H      1 <0>       0.1300
   56 H56       0.0376    -1.3230     4.4638 H      1 <0>       0.1300
   57 H57       0.0062     0.5086     2.8315 H      1 <0>       0.1200
@<TRIPOS>BOND
   1    1    2 1
   2    1   36 1
   3    1   37 1
   4    1   38 1
   5    2   35 1
   6    2    3 1
   7    3    4 2
   8    3   39 1
   9    4    5 1
  10    4   30 1
  11    5   28 1
  12    5    6 2
  13    6    7 1
  14    6   25 1
  15    7   24 1
  16    7    8 2
  17    8    9 1
  18    8   40 1
  19    9   10 1
  20    9   19 1
  21   10   11 1
  22   10   41 1
  23   10   42 1
  24   11   12 1
  25   11   43 1
  26   11   44 1
  27   12   13 1
  28   12   45 1
  29   12   46 1
  30   13   14 1
  31   14   15 ar
  32   14   16 ar
  33   15   47 1
  34   15   48 1
  35   16   17 1
  36   16   18 1
  37   19   24 ar
  38   19   20 ar
  39   20   21 ar
  40   20   49 1
  41   21   22 ar
  42   21   50 1
  43   22   23 ar
  44   22   51 1
  45   23   24 ar
  46   23   52 1
  47   25   26 2
  48   25   27 am
  49   27   28 am
  50   27   53 1
  51   28   29 2
  52   30   35 ar
  53   30   31 ar
  54   31   32 ar
  55   31   54 1
  56   32   33 ar
  57   32   55 1
  58   33   34 ar
  59   33   56 1
  60   34   35 ar
  61   34   57 1
