@<TRIPOS>MOLECULE
ZINC000521836467
43    45    1     0     0
SMALL
USER_CHARGES
@<TRIPOS>ATOM
1      C1     -0.0564    1.2708   -0.5077 C.3      1 ZINC000521836467   -0.1800
2      C2      0.0131   -0.2271   -0.2035 C.3      1 ZINC000521836467    0.0500
3      N3     -1.3466   -0.7801   -0.1469 N.4      1 ZINC000521836467   -0.6300
4      H4     -1.8045   -0.6386   -1.0349 H        1 ZINC000521836467    0.4400
5      H5     -1.2999   -1.7678    0.0537 H        1 ZINC000521836467    0.4400
6      H6     -1.8695   -0.3137    0.5792 H        1 ZINC000521836467    0.4400
7      C7      0.8100   -0.9359   -1.3021 C.3      1 ZINC000521836467   -0.1400
8      C8      2.2423   -0.3971   -1.3151 C.3      1 ZINC000521836467    0.0600
9      N9      2.8658   -0.6292   -0.0060 N.3      1 ZINC000521836467   -0.4700
10     C10     4.2081   -0.2709   -0.0233 C.ar     1 ZINC000521836467    0.3100
11     C11     4.9819   -0.4208    1.1244 C.ar     1 ZINC000521836467   -0.0100
12     N12     6.2570   -0.0823    1.1143 N.ar     1 ZINC000521836467   -0.3500
13     C13     6.8082    0.4032    0.0071 C.ar     1 ZINC000521836467    0.0300
14     C14     8.2405    0.7829   -0.0044 C.ar     1 ZINC000521836467   -0.0200
15     C15     8.6277    2.0396   -0.4675 C.ar     1 ZINC000521836467   -0.1000
16     C16     9.9630    2.3886   -0.4757 C.ar     1 ZINC000521836467   -0.1000
17     C17    10.9178    1.4949   -0.0257 C.ar     1 ZINC000521836467   -0.0900
18     C18    10.5412    0.2449    0.4354 C.ar     1 ZINC000521836467   -0.0300
19     Cl19   11.7464   -0.8707    0.9979 Cl       1 ZINC000521836467   -0.0400
20     C20     9.2066   -0.1137    0.4538 C.ar     1 ZINC000521836467   -0.0100
21     Cl21    8.7345   -1.6809    1.0324 Cl       1 ZINC000521836467   -0.0300
22     C22     6.0315    0.5552   -1.1511 C.ar     1 ZINC000521836467    0.4100
23     N23     6.6020    1.0612   -2.3104 N.pl3    1 ZINC000521836467   -0.8300
24     N24     4.7516    0.2089   -1.1361 N.ar     1 ZINC000521836467   -0.5400
25     C25     2.1453    0.0806    1.0587 C.3      1 ZINC000521836467    0.0600
26     C26     0.7101   -0.4440    1.1425 C.3      1 ZINC000521836467   -0.1300
27     H27     0.9530    1.6798   -0.5517 H        1 ZINC000521836467    0.1000
28     H28    -0.5526    1.4243   -1.4659 H        1 ZINC000521836467    0.0900
29     H29    -0.6190    1.7754    0.2778 H        1 ZINC000521836467    0.0900
30     H30     0.8263   -2.0080   -1.1058 H        1 ZINC000521836467    0.1000
31     H31     0.3423   -0.7495   -2.2688 H        1 ZINC000521836467    0.1000
32     H32     2.8163   -0.9100   -2.0868 H        1 ZINC000521836467    0.1100
33     H33     2.2261    0.6723   -1.5252 H        1 ZINC000521836467    0.0700
34     H34     4.5369   -0.8152    2.0260 H        1 ZINC000521836467    0.1700
35     H35     7.8838    2.7388   -0.8198 H        1 ZINC000521836467    0.1400
36     H36    10.2631    3.3619   -0.8348 H        1 ZINC000521836467    0.1500
37     H37    11.9613    1.7731   -0.0342 H        1 ZINC000521836467    0.1500
38     H38     7.5592    1.2118   -2.3540 H        1 ZINC000521836467    0.4200
39     H39     6.0436    1.2645   -3.0770 H        1 ZINC000521836467    0.4100
40     H40     2.6489   -0.0854    2.0110 H        1 ZINC000521836467    0.1100
41     H41     2.1296    1.1478    0.8375 H        1 ZINC000521836467    0.0600
42     H42     0.1710    0.0939    1.9224 H        1 ZINC000521836467    0.1000
43     H43     0.7248   -1.5083    1.3773 H        1 ZINC000521836467    0.1000
@<TRIPOS>BOND
1     1     2     1
2     1     27    1
3     1     28    1
4     1     29    1
5     2     26    1
6     2     3     1
7     2     7     1
8     3     4     1
9     3     5     1
10    3     6     1
11    7     8     1
12    7     30    1
13    7     31    1
14    8     9     1
15    8     32    1
16    8     33    1
17    9     10    1
18    9     25    1
19    10    24    ar
20    10    11    ar
21    11    12    ar
22    11    34    1
23    12    13    ar
24    13    14    1
25    13    22    ar
26    14    20    ar
27    14    15    ar
28    15    16    ar
29    15    35    1
30    16    17    ar
31    16    36    1
32    17    18    ar
33    17    37    1
34    18    19    1
35    18    20    ar
36    20    21    1
37    22    23    1
38    22    24    ar
39    23    38    1
40    23    39    1
41    25    26    1
42    25    40    1
43    25    41    1
44    26    42    1
45    26    43    1
@<TRIPOS>SUBSTRUCTURE
1   ZINC000521836467 1     RESIDUE    1   A     ZIN   1
