@<TRIPOS>MOLECULE
ZINC000006411540
  33   35    0    0    0
SMALL
USER_CHARGES
NO_NAME
@<TRIPOS>ATOM
    1 C1        0.2212     0.9840     1.0122 C.3    1 <0>       0.0300
    2 O2        0.0016    -0.0031     0.0026 O.3    1 <0>      -0.3200
    3 C3       -1.1997    -0.6363     0.0105 C.ar   1 <0>       0.1300
    4 C4       -2.1496    -0.3076     0.9697 C.ar   1 <0>      -0.2100
    5 C5       -3.3695    -0.9473     0.9816 C.ar   1 <0>      -0.0500
    6 C6       -3.6510    -1.9285     0.0266 C.ar   1 <0>      -0.0700
    7 C7       -4.9556    -2.6157     0.0348 C.2    1 <0>       0.1300
    8 C8       -4.9820    -3.9743    -0.0651 C.2    1 <0>      -0.0600
    9 O9       -3.8213    -4.6771    -0.1698 O.3    1 <0>      -0.4600
   10 C10      -6.2294    -4.6506    -0.0586 C.2    1 <0>       0.4000
   11 O11      -6.2921    -5.8665    -0.1458 O.2    1 <0>      -0.5000
   12 C12      -7.4446    -3.8288     0.0580 C.ar   1 <0>      -0.3700
   13 C13      -8.7179    -4.4126     0.0730 C.ar   1 <0>       0.2200
   14 O14      -8.8535    -5.7597    -0.0206 O.3    1 <0>      -0.4900
   15 C15      -9.8354    -3.6062     0.1844 C.ar   1 <0>      -0.2900
   16 C16      -9.6944    -2.2261     0.2802 C.ar   1 <0>       0.3300
   17 O17     -10.7985    -1.4436     0.3888 O.3    1 <0>      -0.6900
   18 C18      -8.4376    -1.6414     0.2665 C.ar   1 <0>      -0.2900
   19 C19      -7.3049    -2.4330     0.1555 C.ar   1 <0>       0.2000
   20 O20      -6.0743    -1.8791     0.1461 O.3    1 <0>      -0.2100
   21 C21      -2.6923    -2.2559    -0.9366 C.ar   1 <0>      -0.0300
   22 C22      -1.4773    -1.6070    -0.9443 C.ar   1 <0>      -0.1600
   23 H23       1.2169     1.4111     0.8922 H      1 <0>       0.1000
   24 H24      -0.5259     1.7721     0.9184 H      1 <0>       0.0600
   25 H25       0.1403     0.5218     1.9960 H      1 <0>       0.0600
   26 H26      -1.9311     0.4504     1.7074 H      1 <0>       0.1300
   27 H27      -4.1071    -0.6914     1.7278 H      1 <0>       0.1300
   28 H28      -3.9453    -5.6339    -0.2354 H      1 <0>       0.4000
   29 H29      -8.8525    -6.2153     0.8324 H      1 <0>       0.3800
   30 H30     -10.8203    -4.0492     0.1967 H      1 <0>       0.1200
   31 H31      -8.3407    -0.5684     0.3419 H      1 <0>       0.1200
   32 H32      -2.9055    -3.0134    -1.6763 H      1 <0>       0.1400
   33 H33      -0.7361    -1.8591    -1.6882 H      1 <0>       0.1300
@<TRIPOS>BOND
   1    1    2 1
   2    1   23 1
   3    1   24 1
   4    1   25 1
   5    2    3 1
   6    3   22 ar
   7    3    4 ar
   8    4    5 ar
   9    4   26 1
  10    5    6 ar
  11    5   27 1
  12    6    7 1
  13    6   21 ar
  14    7   20 1
  15    7    8 2
  16    8    9 1
  17    8   10 1
  18    9   28 1
  19   10   11 2
  20   10   12 1
  21   12   19 ar
  22   12   13 ar
  23   13   14 1
  24   13   15 ar
  25   14   29 1
  26   15   16 ar
  27   15   30 1
  28   16   17 1
  29   16   18 ar
  30   18   19 ar
  31   18   31 1
  32   19   20 1
  33   21   22 ar
  34   21   32 1
  35   22   33 1
