@<TRIPOS>MOLECULE
ZINC000001612517
33    37    1     0     0
SMALL
USER_CHARGES
@<TRIPOS>ATOM
1      O1      0.0045    0.0943    1.0123 O.2      1 ZINC000001612517   -0.4400
2      C2     -0.0125    1.2843    0.7699 C.2      1 ZINC000001612517    0.5900
3      N3     -1.1159    2.0371    0.6009 N.am     1 ZINC000001612517   -0.6800
4      C4     -0.7838    3.3166    0.3460 C.2      1 ZINC000001612517    0.5800
5      O5     -1.5642    4.2268    0.1502 O.2      1 ZINC000001612517   -0.4500
6      C6      0.6842    3.4274    0.3450 C.2      1 ZINC000001612517   -0.0500
7      C7      1.1713    2.1495    0.6173 C.2      1 ZINC000001612517   -0.1000
8      C8      2.6109    1.9366    0.6830 C.2      1 ZINC000001612517    0.0800
9      C9      3.3724    0.8076    0.9284 C.2      1 ZINC000001612517   -0.1400
10     C10     4.7132    1.1949    0.8682 C.2      1 ZINC000001612517   -0.1400
11     C11     4.7535    2.5212    0.5938 C.2      1 ZINC000001612517   -0.0300
12     N12     3.4786    2.9905    0.4775 N.pl3    1 ZINC000001612517   -0.3500
13     C13     3.0052    4.2578    0.2083 C.2      1 ZINC000001612517    0.3200
14     C14     1.6376    4.5167    0.1379 C.2      1 ZINC000001612517   -0.1700
15     C15     1.4864    5.8915   -0.1496 C.2      1 ZINC000001612517    0.1200
16     N16     2.6729    6.4240   -0.2458 N.2      1 ZINC000001612517   -0.2500
17     N17     3.6419    5.4384   -0.0267 N.pl3    1 ZINC000001612517   -0.3200
18     C18     5.0295    5.6324   -0.0489 C.ar     1 ZINC000001612517    0.1300
19     C19     5.5941    6.6981    0.6391 C.ar     1 ZINC000001612517   -0.0900
20     C20     6.9622    6.8864    0.6156 C.ar     1 ZINC000001612517   -0.1000
21     C21     7.7695    6.0147   -0.0920 C.ar     1 ZINC000001612517   -0.1000
22     C22     7.2101    4.9526   -0.7785 C.ar     1 ZINC000001612517   -0.1000
23     C23     5.8433    4.7558   -0.7542 C.ar     1 ZINC000001612517   -0.1300
24     H24    -2.0250    1.7034    0.6550 H        1 ZINC000001612517    0.4400
25     H25     3.0001   -0.1862    1.1289 H        1 ZINC000001612517    0.1600
26     H26     5.5675    0.5506    1.0146 H        1 ZINC000001612517    0.1600
27     H27     5.6512    3.1118    0.4849 H        1 ZINC000001612517    0.1800
28     H28     0.5481    6.4128   -0.2693 H        1 ZINC000001612517    0.2100
29     H29     4.9641    7.3794    1.1916 H        1 ZINC000001612517    0.1400
30     H30     7.4019    7.7154    1.1503 H        1 ZINC000001612517    0.1400
31     H31     8.8390    6.1640   -0.1088 H        1 ZINC000001612517    0.1400
32     H32     7.8431    4.2740   -1.3309 H        1 ZINC000001612517    0.1400
33     H33     5.4070    3.9262   -1.2907 H        1 ZINC000001612517    0.1300
@<TRIPOS>BOND
1     1     2     2
2     2     7     1
3     2     3     am
4     3     4     am
5     3     24    1
6     4     5     2
7     4     6     1
8     6     14    1
9     6     7     2
10    7     8     1
11    8     12    1
12    8     9     2
13    9     10    1
14    9     25    1
15    10    11    2
16    10    26    1
17    11    12    1
18    11    27    1
19    12    13    1
20    13    17    1
21    13    14    2
22    14    15    1
23    15    16    2
24    15    28    1
25    16    17    1
26    17    18    1
27    18    23    ar
28    18    19    ar
29    19    20    ar
30    19    29    1
31    20    21    ar
32    20    30    1
33    21    22    ar
34    21    31    1
35    22    23    ar
36    22    32    1
37    23    33    1
@<TRIPOS>SUBSTRUCTURE
1   ZINC000001612517 1     RESIDUE    1   A     ZIN   1
