@<TRIPOS>MOLECULE
ZINC000000900187
  48   50    0    0    0
SMALL
USER_CHARGES
NO_NAME
@<TRIPOS>ATOM
    1 C1       -0.0173     1.4248     0.0099 C.3    1 <0>       0.0200
    2 O2        0.0021    -0.0041     0.0020 O.3    1 <0>      -0.3100
    3 C3        0.6262    -0.6188     1.0422 C.ar   1 <0>       0.1100
    4 C4        1.2019     0.1365     2.0506 C.ar   1 <0>      -0.2000
    5 C5        1.8358    -0.4901     3.1079 C.ar   1 <0>      -0.0600
    6 C6        2.4616     0.3332     4.2041 C.3    1 <0>      -0.0700
    7 C7        1.4295     0.5852     5.3051 C.3    1 <0>      -0.1100
    8 H8        1.0065    -0.3556     5.6574 H      1 <0>       0.1100
    9 C9        0.3165     1.5301     4.8037 C.3    1 <0>       0.0600
   10 O10       0.1015     2.4755     5.8946 O.3    1 <0>      -0.3500
   11 C11       1.2745     2.6717     6.5241 C.2    1 <0>       0.4800
   12 O12       1.6386     3.7014     7.0409 O.2    1 <0>      -0.4300
   13 C13       2.0602     1.3724     6.4749 C.3    1 <0>      -0.1400
   14 H14       3.1128     1.5721     6.2743 H      1 <0>       0.1200
   15 C15       1.9051     0.6051     7.7895 C.3    1 <0>      -0.0600
   16 C16       2.5634     1.3783     8.9031 C.ar   1 <0>      -0.0600
   17 C17       3.8968     1.1641     9.1966 C.ar   1 <0>      -0.1300
   18 C18       4.5053     1.8707    10.2177 C.ar   1 <0>      -0.1100
   19 C19       3.7783     2.7959    10.9487 C.ar   1 <0>       0.0800
   20 O20       4.3754     3.4919    11.9530 O.3    1 <0>      -0.4900
   21 C21       2.4355     3.0119    10.6528 C.ar   1 <0>       0.1100
   22 O22       1.7177     3.9195    11.3672 O.3    1 <0>      -0.3100
   23 C23       0.3450     4.0888    11.0079 C.3    1 <0>       0.0200
   24 C24       1.8334     2.3045     9.6252 C.ar   1 <0>      -0.1800
   25 C25       1.8964    -1.8699     3.1617 C.ar   1 <0>      -0.1300
   26 C26       1.3241    -2.6298     2.1580 C.ar   1 <0>      -0.1000
   27 C27       0.6830    -2.0084     1.0988 C.ar   1 <0>       0.0700
   28 O28       0.1197    -2.7543     0.1110 O.3    1 <0>      -0.4900
   29 H29       1.0053     1.8021     0.0021 H      1 <0>       0.0600
   30 H30      -0.5445     1.7859    -0.8732 H      1 <0>       0.1000
   31 H31      -0.5275     1.7763     0.9067 H      1 <0>       0.0600
   32 H32       1.1560     1.2148     2.0110 H      1 <0>       0.1300
   33 H33       3.3135    -0.2041     4.6208 H      1 <0>       0.0900
   34 H34       2.7975     1.2864     3.7959 H      1 <0>       0.0800
   35 H35       0.6420     2.0556     3.9060 H      1 <0>       0.0800
   36 H36      -0.5960     0.9681     4.6045 H      1 <0>       0.1100
   37 H37       0.8459     0.4772     8.0128 H      1 <0>       0.0800
   38 H38       2.3776    -0.3728     7.6974 H      1 <0>       0.1000
   39 H39       4.4647     0.4430     8.6275 H      1 <0>       0.1300
   40 H40       5.5473     1.7009    10.4456 H      1 <0>       0.1400
   41 H41       4.7759     4.3253    11.6699 H      1 <0>       0.3900
   42 H42       0.2787     4.4147     9.9699 H      1 <0>       0.0600
   43 H43      -0.1809     3.1414    11.1256 H      1 <0>       0.0500
   44 H44      -0.1098     4.8396    11.6541 H      1 <0>       0.1000
   45 H45       0.7916     2.4703     9.3935 H      1 <0>       0.1300
   46 H46       2.3920    -2.3556     3.9892 H      1 <0>       0.1300
   47 H47       1.3734    -3.7078     2.2020 H      1 <0>       0.1400
   48 H48      -0.8039    -2.9899     0.2740 H      1 <0>       0.3900
@<TRIPOS>BOND
   1    1    2 1
   2    1   29 1
   3    1   30 1
   4    1   31 1
   5    2    3 1
   6    3   27 ar
   7    3    4 ar
   8    4    5 ar
   9    4   32 1
  10    5    6 1
  11    5   25 ar
  12    6    7 1
  13    6   33 1
  14    6   34 1
  15    7    8 1
  16    7   13 1
  17    7    9 1
  18    9   10 1
  19    9   35 1
  20    9   36 1
  21   10   11 1
  22   11   12 2
  23   11   13 1
  24   13   14 1
  25   13   15 1
  26   15   16 1
  27   15   37 1
  28   15   38 1
  29   16   24 ar
  30   16   17 ar
  31   17   18 ar
  32   17   39 1
  33   18   19 ar
  34   18   40 1
  35   19   20 1
  36   19   21 ar
  37   20   41 1
  38   21   22 1
  39   21   24 ar
  40   22   23 1
  41   23   42 1
  42   23   43 1
  43   23   44 1
  44   24   45 1
  45   25   26 ar
  46   25   46 1
  47   26   27 ar
  48   26   47 1
  49   27   28 1
  50   28   48 1
