@<TRIPOS>MOLECULE
ZINC000084670255
  49   52    0    0    0
SMALL
USER_CHARGES
NO_NAME
@<TRIPOS>ATOM
    1 N1        0.2909     5.3644     4.2055 N.4    1 <0>      -0.6300
    2 H2        0.0452     5.5428     5.1677 H      1 <0>       0.4400
    3 H3       -0.4217     5.7440     3.6004 H      1 <0>       0.4300
    4 H4        1.1763     5.8015     3.9979 H      1 <0>       0.4400
    5 C5        0.3972     3.9155     3.9878 C.3    1 <0>       0.0000
    6 H6        1.1669     3.5049     4.6413 H      1 <0>       0.1400
    7 C7        0.7683     3.6441     2.5281 C.3    1 <0>      -0.1400
    8 C8        0.9114     2.1364     2.3082 C.3    1 <0>      -0.1400
    9 C9       -0.4274     1.4522     2.6019 C.3    1 <0>       0.1300
   10 N10      -0.8629     1.8261     3.9545 N.pl3  1 <0>      -0.6600
   11 C11      -1.1882     0.8513     4.8875 C.ar   1 <0>       0.2000
   12 C12      -0.1885     0.2829     5.6953 C.ar   1 <0>      -0.1000
   13 C13       1.2061     0.7166     5.5576 C.2    1 <0>       0.0700
   14 C14       2.2114    -0.0741     6.0142 C.2    1 <0>      -0.2300
   15 S15       2.0961    -1.7240     6.6581 S.3    1 <0>       0.0200
   16 C16       3.8351    -1.8783     6.9628 C.2    1 <0>       0.5100
   17 O17       4.4060    -2.8458     7.4295 O.2    1 <0>      -0.4200
   18 N18       4.3999    -0.7270     6.5812 N.am   1 <0>      -0.6800
   19 C19       3.6429     0.2363     6.0831 C.2    1 <0>       0.5700
   20 O20       4.0988     1.3046     5.7191 O.2    1 <0>      -0.4800
   21 C21      -0.5309    -0.6993     6.6328 C.ar   1 <0>      -0.0900
   22 C22      -1.8414    -1.1062     6.7617 C.ar   1 <0>      -0.1000
   23 C23      -2.8305    -0.5511     5.9692 C.ar   1 <0>      -0.0700
   24 C24      -2.5146     0.4313     5.0348 C.ar   1 <0>      -0.0500
   25 C25      -3.5797     1.0224     4.1889 C.ar   1 <0>      -0.0400
   26 C26      -3.7874     2.4006     4.1872 C.ar   1 <0>      -0.1100
   27 C27      -4.7800     2.9452     3.3980 C.ar   1 <0>      -0.1200
   28 C28      -5.5680     2.1260     2.6098 C.ar   1 <0>      -0.1100
   29 C29      -5.3667     0.7574     2.6078 C.ar   1 <0>      -0.1100
   30 C30      -4.3729     0.2024     3.3882 C.ar   1 <0>      -0.1000
   31 C31      -0.9473     3.2514     4.3014 C.3    1 <0>       0.1200
   32 H32      -0.0136     4.0336     1.8762 H      1 <0>       0.0900
   33 H33       1.7128     4.1362     2.2961 H      1 <0>       0.0900
   34 H34       1.1985     1.9452     1.2743 H      1 <0>       0.1000
   35 H35       1.6760     1.7420     2.9775 H      1 <0>       0.0800
   36 H36      -1.1716     1.7783     1.8753 H      1 <0>       0.0700
   37 H37      -0.3057     0.3706     2.5432 H      1 <0>       0.0900
   38 H38       1.4334     1.6647     5.0929 H      1 <0>       0.1500
   39 H39       5.3581    -0.6015     6.6648 H      1 <0>       0.4300
   40 H40       0.2337    -1.1391     7.2560 H      1 <0>       0.1400
   41 H41      -2.0982    -1.8645     7.4866 H      1 <0>       0.1400
   42 H42      -3.8538    -0.8785     6.0793 H      1 <0>       0.1400
   43 H43      -3.1730     3.0412     4.8025 H      1 <0>       0.1200
   44 H44      -4.9421     4.0130     3.3962 H      1 <0>       0.1200
   45 H45      -6.3437     2.5564     1.9938 H      1 <0>       0.1300
   46 H46      -5.9851     0.1225     1.9907 H      1 <0>       0.1300
   47 H47      -4.2166    -0.8662     3.3860 H      1 <0>       0.1300
   48 H48      -1.1688     3.3565     5.3634 H      1 <0>       0.1000
   49 H49      -1.7337     3.7247     3.7134 H      1 <0>       0.0800
@<TRIPOS>BOND
   1    1    2 1
   2    1    3 1
   3    1    4 1
   4    1    5 1
   5    5    6 1
   6    5   31 1
   7    5    7 1
   8    7    8 1
   9    7   32 1
  10    7   33 1
  11    8    9 1
  12    8   34 1
  13    8   35 1
  14    9   10 1
  15    9   36 1
  16    9   37 1
  17   10   11 1
  18   10   31 1
  19   11   24 ar
  20   11   12 ar
  21   12   13 1
  22   12   21 ar
  23   13   14 2
  24   13   38 1
  25   14   19 1
  26   14   15 1
  27   15   16 1
  28   16   17 2
  29   16   18 am
  30   18   19 am
  31   18   39 1
  32   19   20 2
  33   21   22 ar
  34   21   40 1
  35   22   23 ar
  36   22   41 1
  37   23   24 ar
  38   23   42 1
  39   24   25 1
  40   25   30 ar
  41   25   26 ar
  42   26   27 ar
  43   26   43 1
  44   27   28 ar
  45   27   44 1
  46   28   29 ar
  47   28   45 1
  48   29   30 ar
  49   29   46 1
  50   30   47 1
  51   31   48 1
  52   31   49 1
