@<TRIPOS>MOLECULE
ZINC000142166191
72    77    1     0     0
SMALL
USER_CHARGES
@<TRIPOS>ATOM
1      C1      2.8396    0.9369   -4.2941 C.3      1 ZINC000142166191    0.0300
2      O2      2.3523   -0.1070   -3.4486 O.3      1 ZINC000142166191   -0.3900
3      C3      2.4696   -1.4146   -4.0130 C.3      1 ZINC000142166191    0.0600
4      C4      1.9204   -2.4470   -3.0264 C.3      1 ZINC000142166191   -0.1100
5      C5      2.0460   -3.8470   -3.6307 C.3      1 ZINC000142166191   -0.0600
6      C6      1.5050   -4.8640   -2.6590 C.2      1 ZINC000142166191   -0.1600
7      C7      0.2238   -5.2934   -2.6053 C.2      1 ZINC000142166191   -0.0100
8      C8     -0.8153   -4.7952   -3.5225 C.2      1 ZINC000142166191    0.6000
9      O9     -0.5342   -3.9668   -4.3677 O.2      1 ZINC000142166191   -0.4900
10     N10    -2.0777   -5.2573   -3.4255 N.am     1 ZINC000142166191   -0.6700
11     C11    -3.0831   -4.7121   -4.2236 C.ar     1 ZINC000142166191    0.1800
12     C12    -3.1674   -3.3382   -4.3968 C.ar     1 ZINC000142166191   -0.1100
13     C13    -4.1643   -2.8001   -5.1873 C.ar     1 ZINC000142166191   -0.0600
14     C14    -5.0844   -3.6247   -5.8118 C.ar     1 ZINC000142166191   -0.1300
15     C15    -5.0152   -4.9929   -5.6503 C.ar     1 ZINC000142166191   -0.0400
16     C16    -4.0101   -5.5505   -4.8594 C.ar     1 ZINC000142166191   -0.0800
17     C17    -3.9305   -7.0146   -4.6826 C.2      1 ZINC000142166191    0.1800
18     N18    -4.8068   -7.8578   -5.1156 N.2      1 ZINC000142166191   -0.4600
19     C19    -4.5945   -9.1621   -4.8760 C.ar     1 ZINC000142166191    0.0500
20     C20    -5.3878  -10.2745   -5.2368 C.ar     1 ZINC000142166191    0.0100
21     C21    -4.9644  -11.5353   -4.8788 C.ar     1 ZINC000142166191   -0.2100
22     C22    -5.7862  -12.7433   -5.2481 C.3      1 ZINC000142166191    0.0600
23     N23    -5.3600  -13.2422   -6.5624 N.4      1 ZINC000142166191   -0.4000
24     H24    -5.3982  -12.5007   -7.2456 H        1 ZINC000142166191    0.4300
25     C25    -3.9827  -13.7920   -6.4796 C.3      1 ZINC000142166191   -0.0100
26     C26    -3.9064  -14.7427   -7.7006 C.3      1 ZINC000142166191   -0.1400
27     C27    -5.3221  -15.3622   -7.7454 C.3      1 ZINC000142166191   -0.1400
28     C28    -6.2207  -14.3688   -6.9839 C.3      1 ZINC000142166191   -0.0100
29     C29    -3.7789  -11.6877   -4.1776 C.ar     1 ZINC000142166191    0.1500
30     N30    -3.0503  -10.6438   -3.8483 N.ar     1 ZINC000142166191   -0.4200
31     C31    -3.4101   -9.4047   -4.1675 C.ar     1 ZINC000142166191    0.0200
32     S32    -2.6252   -7.8566   -3.8594 S.3      1 ZINC000142166191    0.1700
33     N33    -0.0289   -6.1957   -1.6673 N.2      1 ZINC000142166191   -0.4400
34     C34     0.9819   -6.5437   -0.9306 C.2      1 ZINC000142166191    0.1000
35     C35     0.9375   -7.5289    0.1719 C.ar     1 ZINC000142166191   -0.0300
36     C36     2.0923   -7.8187    0.8994 C.ar     1 ZINC000142166191   -0.1000
37     C37     2.0441   -8.7383    1.9268 C.ar     1 ZINC000142166191   -0.1100
38     C38     0.8543   -9.3729    2.2360 C.ar     1 ZINC000142166191   -0.1000
39     C39    -0.2941   -9.0903    1.5181 C.ar     1 ZINC000142166191   -0.1200
40     C40    -0.2606   -8.1681    0.4924 C.ar     1 ZINC000142166191   -0.0700
41     S41     2.4147   -5.6650   -1.4527 S.3      1 ZINC000142166191    0.2100
42     H42     3.8961    0.7709   -4.5043 H        1 ZINC000142166191    0.0400
43     H43     2.2791    0.9386   -5.2290 H        1 ZINC000142166191    0.0400
44     H44     2.7151    1.8974   -3.7941 H        1 ZINC000142166191    0.0900
45     H45     1.9015   -1.4616   -4.9420 H        1 ZINC000142166191    0.0500
46     H46     3.5185   -1.6294   -4.2173 H        1 ZINC000142166191    0.0500
47     H47     2.4885   -2.4000   -2.0974 H        1 ZINC000142166191    0.0700
48     H48     0.8715   -2.2322   -2.8221 H        1 ZINC000142166191    0.0800
49     H49     1.4778   -3.8941   -4.5597 H        1 ZINC000142166191    0.1200
50     H50     3.0949   -4.0618   -3.8350 H        1 ZINC000142166191    0.0800
51     H51    -2.2869   -5.9690   -2.8005 H        1 ZINC000142166191    0.4100
52     H52    -2.4531   -2.6886   -3.9127 H        1 ZINC000142166191    0.1400
53     H53    -4.2265   -1.7299   -5.3187 H        1 ZINC000142166191    0.1400
54     H54    -5.8603   -3.1948   -6.4279 H        1 ZINC000142166191    0.1400
55     H55    -5.7355   -5.6321   -6.1393 H        1 ZINC000142166191    0.1400
56     H56    -6.3095  -10.1385   -5.7831 H        1 ZINC000142166191    0.1600
57     H57    -5.6431  -13.5228   -4.4997 H        1 ZINC000142166191    0.1400
58     H58    -6.8399  -12.4674   -5.2884 H        1 ZINC000142166191    0.1400
59     H59    -3.2444  -12.9948   -6.5660 H        1 ZINC000142166191    0.1300
60     H60    -3.8449  -14.3464   -5.5512 H        1 ZINC000142166191    0.1400
61     H61    -3.7013  -14.1828   -8.6131 H        1 ZINC000142166191    0.1000
62     H62    -3.1526  -15.5140   -7.5425 H        1 ZINC000142166191    0.1200
63     H63    -5.6591  -15.4615   -8.7772 H        1 ZINC000142166191    0.1100
64     H64    -5.3259  -16.3332   -7.2502 H        1 ZINC000142166191    0.1000
65     H65    -6.6514  -14.8538   -6.1079 H        1 ZINC000142166191    0.1300
66     H66    -7.0135  -14.0077   -7.6391 H        1 ZINC000142166191    0.1300
67     H67    -3.4490  -12.6772   -3.8976 H        1 ZINC000142166191    0.1700
68     H68     3.0219   -7.3245    0.6585 H        1 ZINC000142166191    0.1300
69     H69     2.9373   -8.9634    2.4908 H        1 ZINC000142166191    0.1300
70     H70     0.8219  -10.0922    3.0409 H        1 ZINC000142166191    0.1300
71     H71    -1.2198   -9.5893    1.7641 H        1 ZINC000142166191    0.1300
72     H72    -1.1578   -7.9481   -0.0671 H        1 ZINC000142166191    0.1300
@<TRIPOS>BOND
1     1     2     1
2     1     42    1
3     1     43    1
4     1     44    1
5     2     3     1
6     3     4     1
7     3     45    1
8     3     46    1
9     4     5     1
10    4     47    1
11    4     48    1
12    5     6     1
13    5     49    1
14    5     50    1
15    6     41    1
16    6     7     2
17    7     8     1
18    7     33    1
19    8     9     2
20    8     10    am
21    10    11    1
22    10    51    1
23    11    16    ar
24    11    12    ar
25    12    13    ar
26    12    52    1
27    13    14    ar
28    13    53    1
29    14    15    ar
30    14    54    1
31    15    16    ar
32    15    55    1
33    16    17    1
34    17    32    1
35    17    18    2
36    18    19    1
37    19    31    ar
38    19    20    ar
39    20    21    ar
40    20    56    1
41    21    22    1
42    21    29    ar
43    22    23    1
44    22    57    1
45    22    58    1
46    23    24    1
47    23    28    1
48    23    25    1
49    25    26    1
50    25    59    1
51    25    60    1
52    26    27    1
53    26    61    1
54    26    62    1
55    27    28    1
56    27    63    1
57    27    64    1
58    28    65    1
59    28    66    1
60    29    30    ar
61    29    67    1
62    30    31    ar
63    31    32    1
64    33    34    2
65    34    35    1
66    34    41    1
67    35    40    ar
68    35    36    ar
69    36    37    ar
70    36    68    1
71    37    38    ar
72    37    69    1
73    38    39    ar
74    38    70    1
75    39    40    ar
76    39    71    1
77    40    72    1
@<TRIPOS>SUBSTRUCTURE
1   ZINC000142166191 1     RESIDUE    1   A     ZIN   1
