@<TRIPOS>MOLECULE
ZINC000013473132
  50   53    0    0    0
SMALL
USER_CHARGES
NO_NAME
@<TRIPOS>ATOM
    1 C1       -0.0280     1.4560    -0.1325 C.3    1 <0>      -0.0500
    2 N2       -0.0059    -0.0129    -0.1311 N.4    1 <0>      -0.3800
    3 H3       -0.9523    -0.3625    -0.1377 H      1 <0>       0.4300
    4 C4        0.6817    -0.4892     1.0751 C.3    1 <0>      -0.0100
    5 C5        0.6367    -2.0180     1.1223 C.3    1 <0>      -0.1500
    6 C6        1.3319    -2.5823    -0.1201 C.3    1 <0>      -0.0400
    7 C7        1.2229    -4.0854    -0.1195 C.ar   1 <0>      -0.1500
    8 C8       -0.0266    -4.6869    -0.1373 C.ar   1 <0>       0.2000
    9 O9       -1.1433    -3.9155    -0.1550 O.3    1 <0>      -0.4800
   10 C10      -0.1471    -6.0715    -0.1375 C.ar   1 <0>      -0.2000
   11 C11       0.9870    -6.8632    -0.1200 C.ar   1 <0>       0.2500
   12 O12       0.8751    -8.2153    -0.1206 O.3    1 <0>      -0.4800
   13 C13       2.2521    -6.2609    -0.1020 C.ar   1 <0>      -0.2900
   14 C14       2.3738    -4.8617    -0.1070 C.ar   1 <0>       0.1800
   15 O15       3.6805    -4.5180    -0.0866 O.3    1 <0>      -0.2100
   16 C16       4.4860    -5.6057    -0.0674 C.2    1 <0>      -0.0200
   17 C17       5.8412    -5.5987    -0.0441 C.2    1 <0>      -0.0300
   18 C18       6.5718    -4.3277    -0.1536 C.ar   1 <0>      -0.0300
   19 C19       7.9667    -4.3254    -0.2645 C.ar   1 <0>      -0.0900
   20 C20       8.6442    -3.1291    -0.3674 C.ar   1 <0>      -0.0500
   21 C21       7.9483    -1.9325    -0.3611 C.ar   1 <0>      -0.0300
   22 N22       8.6838    -0.6527    -0.4720 N.pl3  1 <0>       0.0200
   23 O23       9.8980    -0.6545    -0.5683 O.2    1 <0>      -0.1500
   24 O24       8.0749     0.4021    -0.4668 O.2    1 <0>      -0.1600
   25 C25       6.5684    -1.9261    -0.2522 C.ar   1 <0>      -0.0600
   26 C26       5.8755    -3.1139    -0.1535 C.ar   1 <0>      -0.1100
   27 C27       3.6217    -6.7981    -0.0807 C.2    1 <0>       0.4200
   28 O28       3.9641    -7.9678    -0.0704 O.2    1 <0>      -0.3900
   29 C29       0.6533    -2.0201    -1.3725 C.3    1 <0>      -0.1500
   30 C30       0.6992    -0.4912    -1.3263 C.3    1 <0>      -0.0100
   31 H31       0.9940     1.8348    -0.1253 H      1 <0>       0.1200
   32 H32      -0.5408     1.8108    -1.0265 H      1 <0>       0.1200
   33 H33      -0.5538     1.8122     0.7534 H      1 <0>       0.1200
   34 H34       1.7197    -0.1572     1.0561 H      1 <0>       0.1300
   35 H35       0.1877    -0.0842     1.9582 H      1 <0>       0.1300
   36 H36       1.1492    -2.3698     2.0176 H      1 <0>       0.1100
   37 H37      -0.4010    -2.3512     1.1415 H      1 <0>       0.1100
   38 H38       2.3828    -2.2931    -0.1126 H      1 <0>       0.1000
   39 H39      -1.4537    -3.6932    -1.0435 H      1 <0>       0.4000
   40 H40      -1.1254    -6.5289    -0.1511 H      1 <0>       0.1600
   41 H41       0.8559    -8.6079    -1.0041 H      1 <0>       0.4100
   42 H42       6.3844    -6.5269     0.0551 H      1 <0>       0.1800
   43 H43       8.5111    -5.2581    -0.2692 H      1 <0>       0.1600
   44 H44       9.7208    -3.1255    -0.4527 H      1 <0>       0.1600
   45 H45       6.0328    -0.9883    -0.2485 H      1 <0>       0.1500
   46 H46       4.7988    -3.1072    -0.0690 H      1 <0>       0.1600
   47 H47       1.1777    -2.3734    -2.2603 H      1 <0>       0.1100
   48 H48      -0.3841    -2.3533    -1.4050 H      1 <0>       0.0900
   49 H49       0.2172    -0.0867    -2.2163 H      1 <0>       0.1300
   50 H50       1.7372    -0.1602    -1.2941 H      1 <0>       0.1300
@<TRIPOS>BOND
   1    1    2 1
   2    1   31 1
   3    1   32 1
   4    1   33 1
   5    2    3 1
   6    2   30 1
   7    2    4 1
   8    4    5 1
   9    4   34 1
  10    4   35 1
  11    5    6 1
  12    5   36 1
  13    5   37 1
  14    6    7 1
  15    6   29 1
  16    6   38 1
  17    7   14 ar
  18    7    8 ar
  19    8    9 1
  20    8   10 ar
  21    9   39 1
  22   10   11 ar
  23   10   40 1
  24   11   12 1
  25   11   13 ar
  26   12   41 1
  27   13   27 1
  28   13   14 ar
  29   14   15 1
  30   15   16 1
  31   16   17 2
  32   16   27 1
  33   17   18 1
  34   17   42 1
  35   18   26 ar
  36   18   19 ar
  37   19   20 ar
  38   19   43 1
  39   20   21 ar
  40   20   44 1
  41   21   22 1
  42   21   25 ar
  43   22   23 2
  44   22   24 2
  45   25   26 ar
  46   25   45 1
  47   26   46 1
  48   27   28 2
  49   29   30 1
  50   29   47 1
  51   29   48 1
  52   30   49 1
  53   30   50 1
