@<TRIPOS>MOLECULE
ZINC000114483165
58    61    1     0     0
SMALL
USER_CHARGES
@<TRIPOS>ATOM
1      C1     -0.7751    0.9561   -0.2522 C.3      1 ZINC000114483165   -0.1500
2      C2     -0.6208   -0.5623   -0.1447 C.3      1 ZINC000114483165   -0.6300
3      S3     -2.2474   -1.3175    0.1279 S.o2     1 ZINC000114483165    2.6100
4      O4     -2.7452   -0.9786    1.4150 O.2      1 ZINC000114483165   -0.9500
5      O5     -3.0597   -1.1837   -1.0303 O.2      1 ZINC000114483165   -0.9500
6      N6     -1.9380   -2.9415    0.2243 N.am     1 ZINC000114483165   -1.0000
7      C7     -1.9515   -3.7854   -0.9803 C.3      1 ZINC000114483165    0.1200
8      C8     -0.6492   -4.5918   -1.0243 C.3      1 ZINC000114483165    0.0300
9      N9     -0.4841   -5.3187    0.2415 N.3      1 ZINC000114483165   -0.4800
10     C10     0.6066   -6.1931    0.1790 C.ar     1 ZINC000114483165    0.1000
11     C11     1.3664   -6.2738   -0.9807 C.ar     1 ZINC000114483165   -0.1500
12     C12     2.4429   -7.1363   -1.0421 C.ar     1 ZINC000114483165   -0.0800
13     C13     2.7656   -7.9233    0.0556 C.ar     1 ZINC000114483165    0.1400
14     N14     3.8577   -8.7982   -0.0068 N.pl3    1 ZINC000114483165   -0.6300
15     C15     4.9688   -8.4630   -0.7538 C.ar     1 ZINC000114483165    0.6200
16     N16     5.0280   -7.2613   -1.3147 N.ar     1 ZINC000114483165   -0.5900
17     C17     6.0705   -6.8962   -2.0379 C.ar     1 ZINC000114483165    0.2600
18     C18     7.1268   -7.7970   -2.2114 C.ar     1 ZINC000114483165   -0.3700
19     C19     8.3085   -7.4321   -3.0091 C.2      1 ZINC000114483165    0.5900
20     N20     8.4375   -6.1788   -3.4879 N.am     1 ZINC000114483165   -0.8500
21     O21     9.1687   -8.2615   -3.2363 O.2      1 ZINC000114483165   -0.5600
22     C22     7.0279   -9.0660   -1.5996 C.ar     1 ZINC000114483165    0.5300
23     N23     8.0397   -9.9925   -1.7378 N.pl3    1 ZINC000114483165   -0.6500
24     C24     7.9774  -11.2598   -1.0055 C.3      1 ZINC000114483165    0.0800
25     C25     8.3470  -12.5345   -1.7667 C.3      1 ZINC000114483165   -0.1900
26     C26     9.2996  -11.9709   -0.7104 C.3      1 ZINC000114483165   -0.1900
27     N27     5.9457   -9.3488   -0.8845 N.ar     1 ZINC000114483165   -0.6200
28     C28     2.0059   -7.8426    1.2152 C.ar     1 ZINC000114483165   -0.1200
29     C29     0.9329   -6.9760    1.2787 C.ar     1 ZINC000114483165   -0.1200
30     C30    -0.3524   -4.3929    1.3744 C.3      1 ZINC000114483165    0.0400
31     C31    -1.6365   -3.5772    1.5159 C.3      1 ZINC000114483165    0.1200
32     H32     0.2023    1.4099   -0.4159 H        1 ZINC000114483165    0.0800
33     H33    -1.4319    1.1963   -1.0882 H        1 ZINC000114483165    0.0700
34     H34    -1.2056    1.3438    0.6711 H        1 ZINC000114483165    0.0700
35     H35    -0.1903   -0.9500   -1.0679 H        1 ZINC000114483165    0.1300
36     H36     0.0360   -0.8025    0.6914 H        1 ZINC000114483165    0.1300
37     H37    -2.8023   -4.4657   -0.9413 H        1 ZINC000114483165    0.0900
38     H38    -2.0227   -3.1561   -1.8674 H        1 ZINC000114483165    0.1000
39     H39    -0.6894   -5.3028   -1.8495 H        1 ZINC000114483165    0.1000
40     H40     0.1930   -3.9149   -1.1676 H        1 ZINC000114483165    0.0500
41     H41     1.1150   -5.6623   -1.8346 H        1 ZINC000114483165    0.1300
42     H42     3.0338   -7.1990   -1.9439 H        1 ZINC000114483165    0.1400
43     H43     3.8332   -9.6397    0.4751 H        1 ZINC000114483165    0.4200
44     H44     6.1072   -5.9159   -2.4896 H        1 ZINC000114483165    0.1700
45     H45     7.7515   -5.5174   -3.3068 H        1 ZINC000114483165    0.4000
46     H46     9.2164   -5.9383   -4.0137 H        1 ZINC000114483165    0.4100
47     H47     8.7927   -9.8052   -2.3198 H        1 ZINC000114483165    0.4300
48     H48     7.1892  -11.3315   -0.2560 H        1 ZINC000114483165    0.1400
49     H49     7.8019  -13.4451   -1.5183 H        1 ZINC000114483165    0.1000
50     H50     8.6366  -12.4302   -2.8124 H        1 ZINC000114483165    0.1000
51     H51    10.2158  -11.4958   -1.0610 H        1 ZINC000114483165    0.1000
52     H52     9.3811  -12.5107    0.2331 H        1 ZINC000114483165    0.1100
53     H53     2.2569   -8.4547    2.0689 H        1 ZINC000114483165    0.1300
54     H54     0.3421   -6.9133    2.1806 H        1 ZINC000114483165    0.1300
55     H55    -0.1773   -4.9596    2.2888 H        1 ZINC000114483165    0.1000
56     H56     0.4857   -3.7187    1.1977 H        1 ZINC000114483165    0.0500
57     H57    -1.5017   -2.8116    2.2800 H        1 ZINC000114483165    0.1000
58     H58    -2.4596   -4.2354    1.7943 H        1 ZINC000114483165    0.0900
@<TRIPOS>BOND
1     1     2     1
2     1     32    1
3     1     33    1
4     1     34    1
5     2     3     1
6     2     35    1
7     2     36    1
8     3     4     2
9     3     5     2
10    3     6     am
11    6     31    1
12    6     7     1
13    7     8     1
14    7     37    1
15    7     38    1
16    8     9     1
17    8     39    1
18    8     40    1
19    9     10    1
20    9     30    1
21    10    29    ar
22    10    11    ar
23    11    12    ar
24    11    41    1
25    12    13    ar
26    12    42    1
27    13    14    1
28    13    28    ar
29    14    15    1
30    14    43    1
31    15    27    ar
32    15    16    ar
33    16    17    ar
34    17    18    ar
35    17    44    1
36    18    19    1
37    18    22    ar
38    19    20    am
39    19    21    2
40    20    45    1
41    20    46    1
42    22    23    1
43    22    27    ar
44    23    24    1
45    23    47    1
46    24    26    1
47    24    25    1
48    24    48    1
49    25    26    1
50    25    49    1
51    25    50    1
52    26    51    1
53    26    52    1
54    28    29    ar
55    28    53    1
56    29    54    1
57    30    31    1
58    30    55    1
59    30    56    1
60    31    57    1
61    31    58    1
@<TRIPOS>SUBSTRUCTURE
1   ZINC000114483165 1     RESIDUE    1   A     ZIN   1
