@<TRIPOS>MOLECULE
ZINC000068247389
63    67    1     0     0
SMALL
USER_CHARGES
@<TRIPOS>ATOM
1      C1     -0.0173    1.4248    0.0099 C.3      1 ZINC000068247389    0.0500
2      O2      0.0021   -0.0041    0.0020 O.3      1 ZINC000068247389   -0.3000
3      C3      0.6065   -0.6078   -1.0570 C.ar     1 ZINC000068247389    0.0700
4      C4     -0.1256   -0.9231   -2.1915 C.ar     1 ZINC000068247389    0.1600
5      O5     -1.4510   -0.6266   -2.2411 O.3      1 ZINC000068247389   -0.3000
6      C6     -2.1499   -0.9766   -3.4374 C.3      1 ZINC000068247389    0.0600
7      C7     -3.6187   -0.5683   -3.3080 C.3      1 ZINC000068247389   -0.1200
8      C8     -4.3669   -0.9431   -4.5889 C.3      1 ZINC000068247389    0.0600
9      N9     -5.7772   -0.5511   -4.4647 N.3      1 ZINC000068247389   -0.5400
10     C10    -6.3267   -0.9654   -3.1656 C.3      1 ZINC000068247389    0.0100
11     C11    -7.7765   -0.4859   -3.0545 C.3      1 ZINC000068247389    0.0600
12     O12    -8.5309   -1.0064   -4.1524 O.3      1 ZINC000068247389   -0.3900
13     C13    -8.0237   -0.6219   -5.4331 C.3      1 ZINC000068247389    0.0600
14     C14    -6.5765   -1.1028   -5.5683 C.3      1 ZINC000068247389    0.0200
15     C15     0.4838   -1.5400   -3.2806 C.ar     1 ZINC000068247389   -0.2200
16     C16     1.8266   -1.8481   -3.2481 C.ar     1 ZINC000068247389   -0.0100
17     C17     2.5771   -1.5391   -2.1168 C.ar     1 ZINC000068247389   -0.1600
18     C18     1.9717   -0.9091   -1.0103 C.ar     1 ZINC000068247389    0.1900
19     N19     2.7207   -0.6170    0.0839 N.2      1 ZINC000068247389   -0.5100
20     C20     3.9928   -0.9028    0.1446 C.2      1 ZINC000068247389    0.6300
21     N21     4.6852   -0.5748    1.2907 N.am     1 ZINC000068247389   -0.6500
22     C22     4.0475    0.0266    2.3145 C.2      1 ZINC000068247389    0.5700
23     O23     2.8616    0.2798    2.2273 O.2      1 ZINC000068247389   -0.4300
24     C24     4.7883    0.3776    3.5406 C.ar     1 ZINC000068247389   -0.3100
25     C25     6.1567    0.0994    3.6583 C.ar     1 ZINC000068247389    0.2300
26     N26     6.7832    0.4292    4.7719 N.ar     1 ZINC000068247389   -0.5700
27     C27     6.1353    1.0156    5.7701 C.ar     1 ZINC000068247389    0.5900
28     N28     6.8281    1.3442    6.9166 N.pl3    1 ZINC000068247389   -0.8000
29     N29     4.8405    1.2956    5.6976 N.ar     1 ZINC000068247389   -0.5700
30     C30     4.1434    1.0031    4.6161 C.ar     1 ZINC000068247389    0.2700
31     N31     4.6718   -1.5128   -0.8745 N.pl3    1 ZINC000068247389   -0.5900
32     C32     6.0841   -1.9107   -0.9924 C.3      1 ZINC000068247389    0.0600
33     C33     6.1645   -2.5407   -2.3955 C.3      1 ZINC000068247389    0.0300
34     N34     4.7972   -2.4314   -2.9156 N.2      1 ZINC000068247389   -0.5400
35     C35     4.0214   -1.8537   -2.0420 C.2      1 ZINC000068247389    0.4100
36     H36     1.0053    1.8021    0.0021 H        1 ZINC000068247389    0.0400
37     H37    -0.5445    1.7859   -0.8732 H        1 ZINC000068247389    0.0400
38     H38    -0.5275    1.7763    0.9067 H        1 ZINC000068247389    0.0900
39     H39    -1.7018   -0.4579   -4.2849 H        1 ZINC000068247389    0.0700
40     H40    -2.0845   -2.0533   -3.5946 H        1 ZINC000068247389    0.0700
41     H41    -4.0667   -1.0871   -2.4605 H        1 ZINC000068247389    0.0800
42     H42    -3.6840    0.5083   -3.1508 H        1 ZINC000068247389    0.0900
43     H43    -3.9189   -0.4243   -5.4364 H        1 ZINC000068247389    0.0800
44     H44    -4.3016   -2.0197   -4.7461 H        1 ZINC000068247389    0.0400
45     H45    -6.2958   -2.0521   -3.0872 H        1 ZINC000068247389    0.0400
46     H46    -5.7352   -0.5249   -2.3630 H        1 ZINC000068247389    0.0900
47     H47    -8.2061   -0.8398   -2.1174 H        1 ZINC000068247389    0.1000
48     H48    -7.8024    0.6035   -3.0790 H        1 ZINC000068247389    0.0600
49     H49    -8.6322   -1.0742   -6.2163 H        1 ZINC000068247389    0.1000
50     H50    -8.0569    0.4636   -5.5268 H        1 ZINC000068247389    0.0600
51     H51    -6.1673   -0.7626   -6.5196 H        1 ZINC000068247389    0.0900
52     H52    -6.5496   -2.1917   -5.5283 H        1 ZINC000068247389    0.0400
53     H53    -0.1000   -1.7793   -4.1571 H        1 ZINC000068247389    0.1400
54     H54     2.2943   -2.3270   -4.0957 H        1 ZINC000068247389    0.1400
55     H55     5.6314   -0.7768    1.3602 H        1 ZINC000068247389    0.4100
56     H56     6.6905   -0.3781    2.8499 H        1 ZINC000068247389    0.1700
57     H57     7.7753    1.1461    6.9844 H        1 ZINC000068247389    0.4200
58     H58     6.3683    1.7733    7.6550 H        1 ZINC000068247389    0.4200
59     H59     3.0897    1.2343    4.5639 H        1 ZINC000068247389    0.1900
60     H60     6.7353   -1.0392   -0.9252 H        1 ZINC000068247389    0.0900
61     H61     6.3416   -2.6433   -0.2275 H        1 ZINC000068247389    0.0900
62     H62     6.8581   -1.9833   -3.0250 H        1 ZINC000068247389    0.1000
63     H63     6.4647   -3.5863   -2.3278 H        1 ZINC000068247389    0.1000
@<TRIPOS>BOND
1     1     2     1
2     1     36    1
3     1     37    1
4     1     38    1
5     2     3     1
6     3     18    ar
7     3     4     ar
8     4     5     1
9     4     15    ar
10    5     6     1
11    6     7     1
12    6     39    1
13    6     40    1
14    7     8     1
15    7     41    1
16    7     42    1
17    8     9     1
18    8     43    1
19    8     44    1
20    9     14    1
21    9     10    1
22    10    11    1
23    10    45    1
24    10    46    1
25    11    12    1
26    11    47    1
27    11    48    1
28    12    13    1
29    13    14    1
30    13    49    1
31    13    50    1
32    14    51    1
33    14    52    1
34    15    16    ar
35    15    53    1
36    16    17    ar
37    16    54    1
38    17    35    1
39    17    18    ar
40    18    19    1
41    19    20    2
42    20    21    1
43    20    31    1
44    21    22    am
45    21    55    1
46    22    23    2
47    22    24    1
48    24    30    ar
49    24    25    ar
50    25    26    ar
51    25    56    1
52    26    27    ar
53    27    28    1
54    27    29    ar
55    28    57    1
56    28    58    1
57    29    30    ar
58    30    59    1
59    31    35    1
60    31    32    1
61    32    33    1
62    32    60    1
63    32    61    1
64    33    34    1
65    33    62    1
66    33    63    1
67    34    35    2
@<TRIPOS>SUBSTRUCTURE
1   ZINC000068247389 1     RESIDUE    1   A     ZIN   1
