@<TRIPOS>MOLECULE
ZINC000015114135
  47   50    0    0    0
SMALL
USER_CHARGES
NO_NAME
@<TRIPOS>ATOM
    1 C1       -0.0178     1.4648     0.0101 C.3    1 <0>      -0.0300
    2 N2        0.0021    -0.0041     0.0020 N.4    1 <0>      -0.3700
    3 H3       -0.9449    -0.3523     0.0092 H      1 <0>       0.4300
    4 C4        0.6862    -0.4760    -1.2078 C.3    1 <0>       0.0000
    5 C5        0.6387    -2.0045    -1.2619 C.3    1 <0>      -0.1400
    6 C6        1.3360    -2.5755    -0.0237 C.3    1 <0>      -0.1300
    7 C7        0.6610    -2.0179     1.2328 C.3    1 <0>      -0.1300
    8 C8        0.7091    -0.4889     1.1935 C.3    1 <0>       0.1300
    9 H9        1.7476    -0.1593     1.1604 H      1 <0>       0.1200
   10 C10       0.0457     0.0659     2.4276 C.ar   1 <0>      -0.3300
   11 C11      -1.3357     0.0446     2.5404 C.ar   1 <0>       0.3400
   12 O12      -2.0841    -0.4775     1.5354 O.3    1 <0>      -0.6900
   13 C13      -1.9624     0.5524     3.6735 C.ar   1 <0>      -0.2800
   14 C14      -1.2099     1.0860     4.7032 C.ar   1 <0>       0.2400
   15 O15      -1.8195     1.5816     5.8097 O.3    1 <0>      -0.4800
   16 C16       0.1865     1.1107     4.5958 C.ar   1 <0>      -0.3500
   17 C17       0.8175     0.5920     3.4519 C.ar   1 <0>       0.2300
   18 O18       2.1637     0.6209     3.3578 O.3    1 <0>      -0.2300
   19 C19       2.9396     1.1325     4.3262 C.2    1 <0>       0.1900
   20 C20       4.4047     1.1239     4.1410 C.ar   1 <0>      -0.0600
   21 C21       5.2401     1.6433     5.1323 C.ar   1 <0>      -0.0800
   22 C22       6.6077     1.6316     4.9529 C.ar   1 <0>      -0.1200
   23 C23       7.1523     1.1072     3.7940 C.ar   1 <0>      -0.1000
   24 C24       6.3304     0.5914     2.8075 C.ar   1 <0>      -0.1200
   25 C25       4.9614     0.5910     2.9764 C.ar   1 <0>      -0.0900
   26 C26       2.4288     1.6584     5.4704 C.2    1 <0>      -0.3000
   27 C27       1.0263     1.6700     5.6682 C.2    1 <0>       0.4200
   28 O28       0.5329     2.1345     6.6830 O.2    1 <0>      -0.4800
   29 H29       1.0047     1.8421     0.0024 H      1 <0>       0.1000
   30 H30      -0.5450     1.8259    -0.8730 H      1 <0>       0.1100
   31 H31      -0.5280     1.8163     0.9069 H      1 <0>       0.1200
   32 H32       0.1908    -0.0662    -2.0881 H      1 <0>       0.1200
   33 H33       1.7248    -0.1456    -1.1897 H      1 <0>       0.1100
   34 H34      -0.3995    -2.3360    -1.2803 H      1 <0>       0.0900
   35 H35       1.1488    -2.3530    -2.1599 H      1 <0>       0.1000
   36 H36       1.2554    -3.6625    -0.0288 H      1 <0>       0.0900
   37 H37       2.3870    -2.2866    -0.0315 H      1 <0>       0.0700
   38 H38      -0.3768    -2.3497     1.2661 H      1 <0>       0.1000
   39 H39       1.1869    -2.3760     2.1178 H      1 <0>       0.1000
   40 H40      -3.0395     0.5302     3.7489 H      1 <0>       0.1300
   41 H41      -1.9525     0.9292     6.5110 H      1 <0>       0.4000
   42 H42       4.8164     2.0535     6.0370 H      1 <0>       0.1400
   43 H43       7.2550     2.0330     5.7187 H      1 <0>       0.1300
   44 H44       8.2238     1.1009     3.6585 H      1 <0>       0.1300
   45 H45       6.7621     0.1840     1.9052 H      1 <0>       0.1300
   46 H46       4.3211     0.1877     2.2058 H      1 <0>       0.1300
   47 H47       3.0879     2.0604     6.2256 H      1 <0>       0.1500
@<TRIPOS>BOND
   1    1    2 1
   2    1   29 1
   3    1   30 1
   4    1   31 1
   5    2    3 1
   6    2    8 1
   7    2    4 1
   8    4    5 1
   9    4   32 1
  10    4   33 1
  11    5    6 1
  12    5   34 1
  13    5   35 1
  14    6    7 1
  15    6   36 1
  16    6   37 1
  17    7    8 1
  18    7   38 1
  19    7   39 1
  20    8    9 1
  21    8   10 1
  22   10   17 ar
  23   10   11 ar
  24   11   12 1
  25   11   13 ar
  26   13   14 ar
  27   13   40 1
  28   14   15 1
  29   14   16 ar
  30   15   41 1
  31   16   27 1
  32   16   17 ar
  33   17   18 1
  34   18   19 1
  35   19   20 1
  36   19   26 2
  37   20   25 ar
  38   20   21 ar
  39   21   22 ar
  40   21   42 1
  41   22   23 ar
  42   22   43 1
  43   23   24 ar
  44   23   44 1
  45   24   25 ar
  46   24   45 1
  47   25   46 1
  48   26   27 1
  49   26   47 1
  50   27   28 2
