@<TRIPOS>MOLECULE
ZINC000020202900
72    75    1     0     0
SMALL
USER_CHARGES
@<TRIPOS>ATOM
1      O1      1.3213    1.8586    0.4257 O.3      1 ZINC000020202900   -0.4900
2      C2      1.0113    0.5526    0.2134 C.ar     1 ZINC000020202900    0.1200
3      C3      0.9307    0.0591   -1.0804 C.ar     1 ZINC000020202900   -0.1400
4      C4      0.6157   -1.2692   -1.2936 C.ar     1 ZINC000020202900   -0.1000
5      C5      0.3805   -2.1061   -0.2187 C.ar     1 ZINC000020202900   -0.1400
6      C6      0.4598   -1.6164    1.0722 C.ar     1 ZINC000020202900   -0.0800
7      C7      0.2023   -2.5314    2.2416 C.3      1 ZINC000020202900    0.0900
8      N8      1.4798   -3.0510    2.7474 N.3      1 ZINC000020202900   -0.5200
9      C9      1.3190   -3.6300    4.0878 C.3      1 ZINC000020202900    0.0200
10     C10     0.9571   -2.5239    5.0811 C.3      1 ZINC000020202900   -0.0100
11     N11     0.7963   -3.1028    6.4215 N.4      1 ZINC000020202900   -0.3800
12     H12     0.1184   -3.8493    6.3853 H        1 ZINC000020202900    0.4200
13     C13     0.3297   -2.0648    7.3485 C.3      1 ZINC000020202900   -0.0100
14     C14     0.0830   -2.6805    8.7274 C.3      1 ZINC000020202900   -0.1500
15     C15     1.3886   -3.2854    9.2514 C.3      1 ZINC000020202900   -0.1400
16     C16     1.9050   -4.3136    8.2407 C.3      1 ZINC000020202900   -0.1500
17     C17     2.0846   -3.6358    6.8805 C.3      1 ZINC000020202900   -0.0100
18     C18     2.0553   -4.0308    1.8163 C.3      1 ZINC000020202900    0.0300
19     C19     3.5302   -4.2532    2.1572 C.3      1 ZINC000020202900   -0.1100
20     H20     3.6193   -4.5765    3.1944 H        1 ZINC000020202900    0.1100
21     C21     4.3032   -2.9459    1.9609 C.3      1 ZINC000020202900   -0.1200
22     C22     4.2362   -2.5414    0.4854 C.3      1 ZINC000020202900   -0.1500
23     C23     4.7915   -3.6783   -0.3752 C.3      1 ZINC000020202900   -0.0100
24     N24     3.9942   -4.8922   -0.1624 N.4      1 ZINC000020202900   -0.3800
25     H25     3.0266   -4.6991   -0.3733 H        1 ZINC000020202900    0.4100
26     C26     4.4831   -5.9586   -1.0465 C.3      1 ZINC000020202900    0.0100
27     C27     3.5775   -7.2105   -0.9381 C.3      1 ZINC000020202900   -0.1400
28     C28     3.8294   -7.9324   -2.2851 C.3      1 ZINC000020202900   -0.1200
29     C29     3.9480   -6.7870   -3.3117 C.3      1 ZINC000020202900   -0.1300
30     C30     4.3636   -5.5321   -2.5242 C.3      1 ZINC000020202900   -0.1400
31     C31     4.1113   -5.3274    1.2354 C.3      1 ZINC000020202900   -0.0100
32     C32     0.7803   -0.2908    1.2907 C.ar     1 ZINC000020202900   -0.1200
33     H33     2.2695    2.0292    0.5088 H        1 ZINC000020202900    0.4000
34     H34     1.1136    0.7127   -1.9205 H        1 ZINC000020202900    0.1400
35     H35     0.5529   -1.6539   -2.3008 H        1 ZINC000020202900    0.1300
36     H36     0.1341   -3.1440   -0.3874 H        1 ZINC000020202900    0.1200
37     H37    -0.3031   -1.9770    3.0324 H        1 ZINC000020202900    0.0900
38     H38    -0.4266   -3.3622    1.9214 H        1 ZINC000020202900    0.0600
39     H39     0.5240   -4.3754    4.0687 H        1 ZINC000020202900    0.0600
40     H40     2.2525   -4.1021    4.3941 H        1 ZINC000020202900    0.1000
41     H41     1.7521   -1.7784    5.1002 H        1 ZINC000020202900    0.1400
42     H42     0.0237   -2.0517    4.7748 H        1 ZINC000020202900    0.1300
43     H43     1.0861   -1.2842    7.4297 H        1 ZINC000020202900    0.1300
44     H44    -0.5978   -1.6330    6.9726 H        1 ZINC000020202900    0.1300
45     H45    -0.2617   -1.9078    9.4147 H        1 ZINC000020202900    0.1200
46     H46    -0.6735   -3.4611    8.6474 H        1 ZINC000020202900    0.0900
47     H47     2.1299   -2.4968    9.3801 H        1 ZINC000020202900    0.0800
48     H48     1.2055   -3.7748   10.2080 H        1 ZINC000020202900    0.1000
49     H49     2.8627   -4.7082    8.5800 H        1 ZINC000020202900    0.1100
50     H50     1.1863   -5.1281    8.1506 H        1 ZINC000020202900    0.0900
51     H51     2.4524   -4.3642    6.1578 H        1 ZINC000020202900    0.1200
52     H52     2.8038   -2.8219    6.9728 H        1 ZINC000020202900    0.1300
53     H53     1.5162   -4.9742    1.9026 H        1 ZINC000020202900    0.0600
54     H54     1.9707   -3.6560    0.7963 H        1 ZINC000020202900    0.0900
55     H55     3.8569   -2.1629    2.5740 H        1 ZINC000020202900    0.1000
56     H56     5.3435   -3.0902    2.2524 H        1 ZINC000020202900    0.0800
57     H57     3.2001   -2.3474    0.2078 H        1 ZINC000020202900    0.0900
58     H58     4.8306   -1.6415    0.3273 H        1 ZINC000020202900    0.1100
59     H59     4.7454   -3.3935   -1.4264 H        1 ZINC000020202900    0.1300
60     H60     5.8276   -3.8712   -0.0970 H        1 ZINC000020202900    0.1300
61     H61     5.5157   -6.2102   -0.8044 H        1 ZINC000020202900    0.1500
62     H62     3.8837   -7.8374   -0.1006 H        1 ZINC000020202900    0.0900
63     H63     2.5304   -6.9227   -0.8439 H        1 ZINC000020202900    0.0900
64     H64     4.7560   -8.5049   -2.2436 H        1 ZINC000020202900    0.0800
65     H65     2.9896   -8.5815   -2.5330 H        1 ZINC000020202900    0.0900
66     H66     4.7070   -7.0294   -4.0556 H        1 ZINC000020202900    0.0900
67     H67     2.9870   -6.6211   -3.7986 H        1 ZINC000020202900    0.0800
68     H68     3.6043   -4.7571   -2.6289 H        1 ZINC000020202900    0.0800
69     H69     5.3243   -5.1655   -2.8859 H        1 ZINC000020202900    0.1000
70     H70     5.1618   -5.4855    1.4795 H        1 ZINC000020202900    0.1400
71     H71     3.5632   -6.2596    1.3724 H        1 ZINC000020202900    0.1300
72     H72     0.8425    0.0910    2.2991 H        1 ZINC000020202900    0.1300
@<TRIPOS>BOND
1     1     2     1
2     1     33    1
3     2     32    ar
4     2     3     ar
5     3     4     ar
6     3     34    1
7     4     5     ar
8     4     35    1
9     5     6     ar
10    5     36    1
11    6     7     1
12    6     32    ar
13    7     8     1
14    7     37    1
15    7     38    1
16    8     9     1
17    8     18    1
18    9     10    1
19    9     39    1
20    9     40    1
21    10    11    1
22    10    41    1
23    10    42    1
24    11    12    1
25    11    17    1
26    11    13    1
27    13    14    1
28    13    43    1
29    13    44    1
30    14    15    1
31    14    45    1
32    14    46    1
33    15    16    1
34    15    47    1
35    15    48    1
36    16    17    1
37    16    49    1
38    16    50    1
39    17    51    1
40    17    52    1
41    18    19    1
42    18    53    1
43    18    54    1
44    19    20    1
45    19    31    1
46    19    21    1
47    21    22    1
48    21    55    1
49    21    56    1
50    22    23    1
51    22    57    1
52    22    58    1
53    23    24    1
54    23    59    1
55    23    60    1
56    24    25    1
57    24    26    1
58    24    31    1
59    26    30    1
60    26    27    1
61    26    61    1
62    27    28    1
63    27    62    1
64    27    63    1
65    28    29    1
66    28    64    1
67    28    65    1
68    29    30    1
69    29    66    1
70    29    67    1
71    30    68    1
72    30    69    1
73    31    70    1
74    31    71    1
75    32    72    1
@<TRIPOS>SUBSTRUCTURE
1   ZINC000020202900 1     RESIDUE    1   A     ZIN   1
