@<TRIPOS>MOLECULE
ZINC000017175232
29    31    1     0     0
SMALL
USER_CHARGES
@<TRIPOS>ATOM
1      N1     -0.0156    1.2994    0.0092 N.2      1 ZINC000017175232   -0.7500
2      C2      0.0021   -0.0041    0.0020 C.2      1 ZINC000017175232    0.6100
3      N3      1.1380   -0.7767   -0.0070 N.am     1 ZINC000017175232   -0.7000
4      C4      0.7945   -2.0798   -0.0118 C.2      1 ZINC000017175232    0.5600
5      O5      1.5548   -3.0296   -0.0196 O.2      1 ZINC000017175232   -0.4700
6      C6     -0.6771   -2.1342   -0.0053 C.2      1 ZINC000017175232    0.0500
7      C7     -1.4532   -3.2469   -0.0065 C.2      1 ZINC000017175232    0.0000
8      C8     -0.8488   -4.6368   -0.0094 C.3      1 ZINC000017175232   -0.1000
9      C9     -1.6648   -5.5379   -0.9434 C.3      1 ZINC000017175232    0.1100
10     N10    -2.0021   -4.9018   -2.2072 N.am     1 ZINC000017175232   -0.7100
11     C11    -3.0896   -4.0925   -2.3149 C.2      1 ZINC000017175232    0.6000
12     O12    -3.5342   -3.7758   -3.4029 O.2      1 ZINC000017175232   -0.5200
13     C13    -3.7088   -3.6146   -1.0720 C.2      1 ZINC000017175232    0.0000
14     C14    -2.9167   -3.1628    0.0011 C.2      1 ZINC000017175232   -0.1000
15     C15    -3.8023   -2.6863    0.9784 C.2      1 ZINC000017175232   -0.1200
16     C16    -5.0623   -2.9041    0.5267 C.2      1 ZINC000017175232    0.0200
17     Br17   -6.6481   -2.4631    1.4577 Br       1 ZINC000017175232    0.0200
18     N18    -5.0099   -3.4925   -0.7038 N.pl3    1 ZINC000017175232   -0.4900
19     N19    -1.1110   -0.8062    0.0083 N.pl3    1 ZINC000017175232   -0.6400
20     H20     0.8177    1.7958    0.0039 H        1 ZINC000017175232    0.3600
21     H21     2.0465   -0.4368   -0.0098 H        1 ZINC000017175232    0.4300
22     H22     0.1815   -4.5854   -0.3612 H        1 ZINC000017175232    0.1000
23     H23    -0.8698   -5.0453    1.0010 H        1 ZINC000017175232    0.1100
24     H24    -1.0898   -6.4408   -1.1489 H        1 ZINC000017175232    0.1000
25     H25    -2.5876   -5.8217   -0.4375 H        1 ZINC000017175232    0.0800
26     H26    -1.4433   -5.0573   -2.9847 H        1 ZINC000017175232    0.4100
27     H27    -3.5306   -2.2301    1.9188 H        1 ZINC000017175232    0.1600
28     H28    -5.7751   -3.7741   -1.2293 H        1 ZINC000017175232    0.4300
29     H29    -2.0332   -0.5055    0.0158 H        1 ZINC000017175232    0.4400
@<TRIPOS>BOND
1     1     2     2
2     1     20    1
3     2     19    1
4     2     3     1
5     3     4     am
6     3     21    1
7     4     5     2
8     4     6     1
9     6     7     2
10    6     19    1
11    7     14    1
12    7     8     1
13    8     9     1
14    8     22    1
15    8     23    1
16    9     10    1
17    9     24    1
18    9     25    1
19    10    11    am
20    10    26    1
21    11    12    2
22    11    13    1
23    13    18    1
24    13    14    2
25    14    15    1
26    15    16    2
27    15    27    1
28    16    17    1
29    16    18    1
30    18    28    1
31    19    29    1
@<TRIPOS>SUBSTRUCTURE
1   ZINC000017175232 1     RESIDUE    1   A     ZIN   1
