@<TRIPOS>MOLECULE
ZINC000006818424
42    44    1     0     0
SMALL
USER_CHARGES
@<TRIPOS>ATOM
1      C1     -0.0184    1.5028    0.0103 C.3      1 ZINC000006818424   -0.1200
2      C2      0.0021   -0.0041    0.0020 C.ar     1 ZINC000006818424   -0.0500
3      C3      0.0057   -0.6862   -1.2018 C.ar     1 ZINC000006818424   -0.1300
4      C4      0.0239   -2.0655   -1.2165 C.ar     1 ZINC000006818424   -0.0500
5      C5      0.0392   -2.7731   -0.0132 C.ar     1 ZINC000006818424   -0.1500
6      C6      0.0592   -4.2509   -0.0214 C.2      1 ZINC000006818424    0.5600
7      O7      0.0624   -4.8529   -1.0774 O.2      1 ZINC000006818424   -0.4500
8      N8      0.0740   -4.9310    1.1421 N.am     1 ZINC000006818424   -0.6200
9      C9      0.0928   -6.3206    1.1344 C.2      1 ZINC000006818424    0.2800
10     N10     0.1038   -7.0830    0.0791 N.2      1 ZINC000006818424   -0.2700
11     N11     0.1206   -8.3309    0.2590 N.2      1 ZINC000006818424   -0.1100
12     C12     0.1257   -8.7680    1.4769 C.2      1 ZINC000006818424   -0.5800
13     S13     0.1492  -10.4587    1.9724 S.o2     1 ZINC000006818424    2.7200
14     O14     1.5096  -10.8679    1.9386 O.2      1 ZINC000006818424   -0.9200
15     O15    -0.6603  -10.5469    3.1369 O.2      1 ZINC000006818424   -0.9300
16     N16    -0.6291  -11.3253    0.7952 N.am     1 ZINC000006818424   -0.9800
17     C17     0.1281  -11.8716   -0.3337 C.3      1 ZINC000006818424    0.0900
18     C18    -2.0747  -11.5457    0.8828 C.3      1 ZINC000006818424    0.1900
19     C19    -2.7930  -10.4930    0.0784 C.2      1 ZINC000006818424   -0.0500
20     C20    -3.1280  -10.5882   -1.2208 C.2      1 ZINC000006818424   -0.1800
21     C21    -3.7821   -9.3828   -1.5646 C.2      1 ZINC000006818424   -0.2100
22     C22    -3.8076   -8.6231   -0.4548 C.2      1 ZINC000006818424   -0.0300
23     O23    -3.2122   -9.3030    0.5387 O.3      1 ZINC000006818424   -0.1800
24     S24     0.1138   -7.3697    2.5537 S.3      1 ZINC000006818424    0.1900
25     C25     0.0359   -2.0786    1.1978 C.ar     1 ZINC000006818424   -0.0800
26     C26     0.0229   -0.6991    1.1982 C.ar     1 ZINC000006818424   -0.1300
27     H27     1.0042    1.8801    0.0026 H        1 ZINC000006818424    0.0800
28     H28    -0.5455    1.8639   -0.8728 H        1 ZINC000006818424    0.0700
29     H29    -0.5286    1.8543    0.9071 H        1 ZINC000006818424    0.0700
30     H30    -0.0062   -0.1375   -2.1320 H        1 ZINC000006818424    0.1400
31     H31     0.0259   -2.5967   -2.1568 H        1 ZINC000006818424    0.1400
32     H32     0.0714   -4.4507    1.9848 H        1 ZINC000006818424    0.4300
33     H33     0.4799  -12.8728   -0.0848 H        1 ZINC000006818424    0.0700
34     H34    -0.5146  -11.9204   -1.2127 H        1 ZINC000006818424    0.0800
35     H35     0.9825  -11.2280   -0.5436 H        1 ZINC000006818424    0.0800
36     H36    -2.3164  -12.5325    0.4878 H        1 ZINC000006818424    0.1300
37     H37    -2.3892  -11.4843    1.9246 H        1 ZINC000006818424    0.1100
38     H38    -2.9340  -11.4246   -1.8759 H        1 ZINC000006818424    0.1500
39     H39    -4.1838   -9.1219   -2.5325 H        1 ZINC000006818424    0.1500
40     H40    -4.2376   -7.6356   -0.3751 H        1 ZINC000006818424    0.2000
41     H41     0.0477   -2.6201    2.1322 H        1 ZINC000006818424    0.1300
42     H42     0.0207   -0.1606    2.1344 H        1 ZINC000006818424    0.1300
@<TRIPOS>BOND
1     1     2     1
2     1     27    1
3     1     28    1
4     1     29    1
5     2     26    ar
6     2     3     ar
7     3     4     ar
8     3     30    1
9     4     5     ar
10    4     31    1
11    5     6     1
12    5     25    ar
13    6     7     2
14    6     8     am
15    8     9     1
16    8     32    1
17    9     24    1
18    9     10    2
19    10    11    1
20    11    12    2
21    12    13    1
22    12    24    1
23    13    14    2
24    13    15    2
25    13    16    am
26    16    17    1
27    16    18    1
28    17    33    1
29    17    34    1
30    17    35    1
31    18    19    1
32    18    36    1
33    18    37    1
34    19    23    1
35    19    20    2
36    20    21    1
37    20    38    1
38    21    22    2
39    21    39    1
40    22    23    1
41    22    40    1
42    25    26    ar
43    25    41    1
44    26    42    1
@<TRIPOS>SUBSTRUCTURE
1   ZINC000006818424 1     RESIDUE    1   A     ZIN   1
