@<TRIPOS>MOLECULE
ZINC000057318556
56    59    1     0     0
SMALL
USER_CHARGES
@<TRIPOS>ATOM
1      C1     -0.1543    1.5591    0.1680 C.3      1 ZINC000057318556   -0.0700
2      C2     -0.0890    0.0553    0.0949 C.2      1 ZINC000057318556    0.1900
3      N3     -0.0639   -0.6736   -0.9921 N.2      1 ZINC000057318556   -0.2700
4      N4     -0.0023   -1.9227   -0.6825 N.2      1 ZINC000057318556   -0.2600
5      C5      0.0183   -2.0535    0.6127 C.2      1 ZINC000057318556    0.1700
6      C6      0.1051   -3.3276    1.4115 C.3      1 ZINC000057318556    0.1800
7      H7      0.1517   -4.1801    0.7338 H        1 ZINC000057318556    0.1500
8      C8     -1.1281   -3.4541    2.3082 C.3      1 ZINC000057318556   -0.1400
9      C9     -1.1013   -4.7850    3.0146 C.2      1 ZINC000057318556    0.4700
10     O10    -0.1893   -5.5536    2.8207 O.2      1 ZINC000057318556   -0.4800
11     O11    -2.0905   -5.1167    3.8591 O.3      1 ZINC000057318556   -0.3500
12     C12    -1.9992   -6.4143    4.5042 C.3      1 ZINC000057318556    0.1200
13     C13    -0.7130   -6.4841    5.3298 C.3      1 ZINC000057318556   -0.1800
14     C14    -3.2064   -6.6133    5.4228 C.3      1 ZINC000057318556   -0.1400
15     C15    -1.9820   -7.5130    3.4395 C.3      1 ZINC000057318556   -0.1800
16     N16     1.3127   -3.2939    2.2395 N.2      1 ZINC000057318556   -0.4600
17     C17     1.4969   -2.4061    3.1627 C.2      1 ZINC000057318556    0.2800
18     C18     2.7120   -2.5469    3.9987 C.ar     1 ZINC000057318556   -0.0500
19     C19     3.1503   -3.8122    4.3888 C.ar     1 ZINC000057318556   -0.0600
20     C20     4.2825   -3.9377    5.1667 C.ar     1 ZINC000057318556   -0.1100
21     C21     4.9833   -2.8101    5.5608 C.ar     1 ZINC000057318556   -0.0200
22     Cl22    6.4070   -2.9751    6.5403 Cl       1 ZINC000057318556   -0.0600
23     C23     4.5527   -1.5515    5.1759 C.ar     1 ZINC000057318556   -0.1200
24     C24     3.4248   -1.4151    4.3936 C.ar     1 ZINC000057318556   -0.0700
25     C25     0.6076   -1.2655    3.4592 C.2      1 ZINC000057318556   -0.1100
26     C26    -0.0613   -0.5225    2.5093 C.2      1 ZINC000057318556   -0.0100
27     S27    -0.9403    0.7473    3.2341 S.3      1 ZINC000057318556    0.2400
28     C28    -0.4551    0.2692    4.8490 C.2      1 ZINC000057318556   -0.1800
29     C29    -0.8854    0.9652    6.1145 C.3      1 ZINC000057318556   -0.0800
30     C30     0.3402   -0.7859    4.8043 C.2      1 ZINC000057318556   -0.0600
31     C31     0.9168   -1.4330    6.0371 C.3      1 ZINC000057318556   -0.1200
32     N32    -0.0390   -0.8033    1.1415 N.pl3    1 ZINC000057318556   -0.4000
33     H33     0.8566    1.9668    0.1736 H        1 ZINC000057318556    0.1000
34     H34    -0.6956    1.9418   -0.6973 H        1 ZINC000057318556    0.1100
35     H35    -0.6711    1.8565    1.0804 H        1 ZINC000057318556    0.0800
36     H36    -1.1251   -2.6513    3.0455 H        1 ZINC000057318556    0.1100
37     H37    -2.0292   -3.3843    1.6988 H        1 ZINC000057318556    0.1200
38     H38    -0.7252   -5.7014    6.0883 H        1 ZINC000057318556    0.0600
39     H39    -0.6444   -7.4582    5.8140 H        1 ZINC000057318556    0.0700
40     H40     0.1471   -6.3424    4.6753 H        1 ZINC000057318556    0.0800
41     H41    -4.1227   -6.5636    4.8346 H        1 ZINC000057318556    0.0700
42     H42    -3.1378   -7.5874    5.9071 H        1 ZINC000057318556    0.0800
43     H43    -3.2186   -5.8306    6.1813 H        1 ZINC000057318556    0.0700
44     H44    -1.1219   -7.3713    2.7850 H        1 ZINC000057318556    0.0800
45     H45    -1.9134   -8.4871    3.9237 H        1 ZINC000057318556    0.0700
46     H46    -2.8983   -7.4633    2.8513 H        1 ZINC000057318556    0.0600
47     H47     2.6041   -4.6921    4.0826 H        1 ZINC000057318556    0.1400
48     H48     4.6228   -4.9170    5.4693 H        1 ZINC000057318556    0.1400
49     H49     5.1029   -0.6754    5.4860 H        1 ZINC000057318556    0.1400
50     H50     3.0900   -0.4330    4.0937 H        1 ZINC000057318556    0.1300
51     H51    -1.5375    1.8023    5.8651 H        1 ZINC000057318556    0.0700
52     H52    -1.4234    0.2625    6.7508 H        1 ZINC000057318556    0.0900
53     H53    -0.0065    1.3343    6.6430 H        1 ZINC000057318556    0.0900
54     H54     0.2879   -2.2720    6.3350 H        1 ZINC000057318556    0.0800
55     H55     1.9234   -1.7917    5.8222 H        1 ZINC000057318556    0.0900
56     H56     0.9561   -0.7033    6.8459 H        1 ZINC000057318556    0.0800
@<TRIPOS>BOND
1     1     2     1
2     1     33    1
3     1     34    1
4     1     35    1
5     2     32    1
6     2     3     2
7     3     4     1
8     4     5     2
9     5     32    1
10    5     6     1
11    6     7     1
12    6     8     1
13    6     16    1
14    8     9     1
15    8     36    1
16    8     37    1
17    9     10    2
18    9     11    1
19    11    12    1
20    12    13    1
21    12    14    1
22    12    15    1
23    13    38    1
24    13    39    1
25    13    40    1
26    14    41    1
27    14    42    1
28    14    43    1
29    15    44    1
30    15    45    1
31    15    46    1
32    16    17    2
33    17    18    1
34    17    25    1
35    18    24    ar
36    18    19    ar
37    19    20    ar
38    19    47    1
39    20    21    ar
40    20    48    1
41    21    22    1
42    21    23    ar
43    23    24    ar
44    23    49    1
45    24    50    1
46    25    30    1
47    25    26    2
48    26    27    1
49    26    32    1
50    27    28    1
51    28    29    1
52    28    30    2
53    29    51    1
54    29    52    1
55    29    53    1
56    30    31    1
57    31    54    1
58    31    55    1
59    31    56    1
@<TRIPOS>SUBSTRUCTURE
1   ZINC000057318556 1     RESIDUE    1   A     ZIN   1
