@<TRIPOS>MOLECULE
ZINC000006483730
42    43    1     0     0
SMALL
USER_CHARGES
@<TRIPOS>ATOM
1      C1     -0.0173    1.4248    0.0099 C.3      1 ZINC000006483730    0.0200
2      O2      0.0021   -0.0041    0.0020 O.3      1 ZINC000006483730   -0.3100
3      C3      0.6262   -0.6188    1.0422 C.ar     1 ZINC000006483730    0.1000
4      C4      1.1994    0.1356    2.0461 C.ar     1 ZINC000006483730   -0.1700
5      C5      1.8413   -0.5009    3.1156 C.ar     1 ZINC000006483730   -0.0500
6      C6      2.4530    0.2962    4.1878 C.2      1 ZINC000006483730   -0.0200
7      C7      3.0717   -0.3199    5.2186 C.2      1 ZINC000006483730   -0.2200
8      C8      3.6809    0.4741    6.2865 C.2      1 ZINC000006483730    0.4100
9      O9      3.6301    1.6918    6.2458 O.2      1 ZINC000006483730   -0.4700
10     C10     4.3512   -0.1934    7.4032 C.2      1 ZINC000006483730   -0.2200
11     C11     4.9136    0.5395    8.3889 C.2      1 ZINC000006483730   -0.0200
12     C12     5.5866   -0.1307    9.5102 C.ar     1 ZINC000006483730   -0.0500
13     C13     5.6512   -1.5280    9.5560 C.ar     1 ZINC000006483730   -0.1200
14     C14     6.2832   -2.1537   10.6083 C.ar     1 ZINC000006483730   -0.1100
15     C15     6.8570   -1.4017   11.6246 C.ar     1 ZINC000006483730    0.0900
16     O16     7.4787   -2.0243   12.6593 O.3      1 ZINC000006483730   -0.4900
17     C17     6.7972   -0.0085   11.5859 C.ar     1 ZINC000006483730    0.1000
18     O18     7.3614    0.7239   12.5832 O.3      1 ZINC000006483730   -0.3100
19     C19     7.2628    2.1457   12.4794 C.3      1 ZINC000006483730    0.0200
20     C20     6.1703    0.6270   10.5331 C.ar     1 ZINC000006483730   -0.1700
21     C21     1.8980   -1.8986    3.1605 C.ar     1 ZINC000006483730   -0.1200
22     C22     1.3232   -2.6436    2.1541 C.ar     1 ZINC000006483730   -0.1100
23     C23     0.6821   -2.0116    1.0972 C.ar     1 ZINC000006483730    0.0900
24     O24     0.1174   -2.7514    0.1080 O.3      1 ZINC000006483730   -0.4900
25     H25     1.0053    1.8021    0.0021 H        1 ZINC000006483730    0.0600
26     H26    -0.5445    1.7859   -0.8732 H        1 ZINC000006483730    0.1000
27     H27    -0.5275    1.7763    0.9067 H        1 ZINC000006483730    0.0600
28     H28     1.1532    1.2139    2.0067 H        1 ZINC000006483730    0.1400
29     H29     2.4080    1.3747    4.1518 H        1 ZINC000006483730    0.1400
30     H30     3.1167   -1.3983    5.2547 H        1 ZINC000006483730    0.1400
31     H31     4.3962   -1.2718    7.4393 H        1 ZINC000006483730    0.1400
32     H32     4.8686    1.6179    8.3528 H        1 ZINC000006483730    0.1400
33     H33     5.2055   -2.1156    8.7671 H        1 ZINC000006483730    0.1400
34     H34     6.3322   -3.2321   10.6429 H        1 ZINC000006483730    0.1400
35     H35     8.4211   -2.1840   12.5132 H        1 ZINC000006483730    0.3900
36     H36     7.7483    2.4776   11.5617 H        1 ZINC000006483730    0.0600
37     H37     6.2125    2.4367   12.4606 H        1 ZINC000006483730    0.0600
38     H38     7.7524    2.6074   13.3369 H        1 ZINC000006483730    0.1000
39     H39     6.1234    1.7055   10.5021 H        1 ZINC000006483730    0.1400
40     H40     2.3925   -2.3931    3.9836 H        1 ZINC000006483730    0.1400
41     H41     1.3678   -3.7221    2.1896 H        1 ZINC000006483730    0.1400
42     H42    -0.8066   -2.9857    0.2707 H        1 ZINC000006483730    0.3900
@<TRIPOS>BOND
1     1     2     1
2     1     25    1
3     1     26    1
4     1     27    1
5     2     3     1
6     3     23    ar
7     3     4     ar
8     4     5     ar
9     4     28    1
10    5     6     1
11    5     21    ar
12    6     7     2
13    6     29    1
14    7     8     1
15    7     30    1
16    8     9     2
17    8     10    1
18    10    11    2
19    10    31    1
20    11    12    1
21    11    32    1
22    12    20    ar
23    12    13    ar
24    13    14    ar
25    13    33    1
26    14    15    ar
27    14    34    1
28    15    16    1
29    15    17    ar
30    16    35    1
31    17    18    1
32    17    20    ar
33    18    19    1
34    19    36    1
35    19    37    1
36    19    38    1
37    20    39    1
38    21    22    ar
39    21    40    1
40    22    23    ar
41    22    41    1
42    23    24    1
43    24    42    1
@<TRIPOS>SUBSTRUCTURE
1   ZINC000006483730 1     RESIDUE    1   A     ZIN   1
