@<TRIPOS>MOLECULE
ZINC000043131420
64    67    1     0     0
SMALL
USER_CHARGES
@<TRIPOS>ATOM
1      C1     -3.7769   -4.0535   -2.8382 C.3      1 ZINC000043131420    0.0200
2      O2     -2.5192   -3.6763   -2.2745 O.3      1 ZINC000043131420   -0.3000
3      C3     -2.4863   -2.5232   -1.5544 C.ar     1 ZINC000043131420    0.1700
4      C4     -3.6417   -1.7753   -1.3902 C.ar     1 ZINC000043131420   -0.2300
5      C5     -3.6082   -0.5978   -0.6555 C.ar     1 ZINC000043131420    0.2500
6      N6     -4.7756    0.1573   -0.4904 N.pl3    1 ZINC000043131420   -0.6300
7      C7     -6.0100   -0.4726   -0.4595 C.ar     1 ZINC000043131420    0.5800
8      N8     -6.0594   -1.7959   -0.4715 N.ar     1 ZINC000043131420   -0.5700
9      C9     -7.2205   -2.4349   -0.4424 C.ar     1 ZINC000043131420    0.1900
10     C10    -8.3931   -1.7042   -0.3990 C.ar     1 ZINC000043131420   -0.0900
11     F11    -9.5931   -2.3240   -0.3681 F        1 ZINC000043131420   -0.1200
12     C12    -8.3083   -0.3086   -0.3873 C.ar     1 ZINC000043131420    0.4600
13     N13    -9.4588    0.4667   -0.3441 N.pl3    1 ZINC000043131420   -0.6100
14     C14    -9.3691    1.8535   -0.4516 C.ar     1 ZINC000043131420    0.3700
15     C15    -8.2161    2.4270   -0.9717 C.ar     1 ZINC000043131420   -0.1900
16     C16    -8.1337    3.8075   -1.0769 C.ar     1 ZINC000043131420   -0.0500
17     C17    -9.2146    4.5656   -0.6549 C.ar     1 ZINC000043131420    0.0000
18     O18    -9.1879    5.9224   -0.7386 O.3      1 ZINC000043131420   -0.2900
19     C19   -10.4360    6.5742   -0.9905 C.3      1 ZINC000043131420    0.1000
20     C20   -10.2944    8.0718   -0.7110 C.3      1 ZINC000043131420   -0.1200
21     C21   -10.8349    6.3640   -2.4525 C.3      1 ZINC000043131420   -0.1700
22     C22   -11.4982    5.9939   -0.0919 C.2      1 ZINC000043131420    0.5000
23     O23   -12.4158    6.6881    0.2916 O.2      1 ZINC000043131420   -0.4900
24     N24   -11.4258    4.6994    0.2847 N.am     1 ZINC000043131420   -0.5300
25     C25   -12.4703    4.1125    1.1278 C.3      1 ZINC000043131420    0.3500
26     O26   -13.3064    3.2694    0.3329 O.3      1 ZINC000043131420   -0.7500
27     P27   -14.5612    2.4600    0.9349 P.3      1 ZINC000043131420    2.1300
28     O28   -14.0842    1.5757    2.1369 O.co2    1 ZINC000043131420   -1.1800
29     O29   -15.6473    3.4741    1.4314 O.co2    1 ZINC000043131420   -1.1800
30     O30   -15.1733    1.5425   -0.1778 O.co2    1 ZINC000043131420   -1.1600
31     C31   -10.3418    3.9260   -0.1407 C.ar     1 ZINC000043131420    0.3600
32     N32   -10.3872    2.6062   -0.0612 N.ar     1 ZINC000043131420   -0.4800
33     N33    -7.1097    0.2644   -0.4132 N.ar     1 ZINC000043131420   -0.5800
34     C34    -2.4179   -0.1689   -0.0840 C.ar     1 ZINC000043131420   -0.2700
35     C35    -1.2617   -0.9157   -0.2473 C.ar     1 ZINC000043131420    0.1700
36     O36    -0.0958   -0.4954    0.3125 O.3      1 ZINC000043131420   -0.3000
37     C37    -0.1357    0.7245    1.0557 C.3      1 ZINC000043131420    0.0200
38     C38    -1.2955   -2.0973   -0.9782 C.ar     1 ZINC000043131420    0.0000
39     O39    -0.1601   -2.8317   -1.1388 O.3      1 ZINC000043131420   -0.3100
40     C40     0.1111   -3.8307   -0.1536 C.3      1 ZINC000043131420    0.0300
41     H41    -3.6637   -4.9892   -3.3857 H        1 ZINC000043131420    0.1000
42     H42    -4.5077   -4.1855   -2.0404 H        1 ZINC000043131420    0.0600
43     H43    -4.1187   -3.2735   -3.5186 H        1 ZINC000043131420    0.0600
44     H44    -4.5681   -2.1085   -1.8341 H        1 ZINC000043131420    0.1600
45     H45    -4.7206    1.1213   -0.3977 H        1 ZINC000043131420    0.4300
46     H46    -7.2499   -3.5145   -0.4529 H        1 ZINC000043131420    0.1800
47     H47   -10.3252    0.0433   -0.2391 H        1 ZINC000043131420    0.4400
48     H48    -7.3928    1.8049   -1.2903 H        1 ZINC000043131420    0.1800
49     H49    -7.2490    4.2801   -1.4775 H        1 ZINC000043131420    0.1500
50     H50    -9.5272    8.4919   -1.3615 H        1 ZINC000043131420    0.0800
51     H51   -11.2453    8.5687   -0.9029 H        1 ZINC000043131420    0.0900
52     H52   -10.0097    8.2218    0.3304 H        1 ZINC000043131420    0.0700
53     H53   -10.9354    5.2971   -2.6519 H        1 ZINC000043131420    0.0700
54     H54   -11.7860    6.8607   -2.6446 H        1 ZINC000043131420    0.0800
55     H55   -10.0676    6.7845   -3.1026 H        1 ZINC000043131420    0.0800
56     H56   -12.0090    3.5234    1.9205 H        1 ZINC000043131420    0.0700
57     H57   -13.0709    4.9080    1.5689 H        1 ZINC000043131420    0.0800
58     H58    -2.3927    0.7470    0.4877 H        1 ZINC000043131420    0.1400
59     H59     0.8576    0.9441    1.4471 H        1 ZINC000043131420    0.1000
60     H60    -0.4570    1.5368    0.4037 H        1 ZINC000043131420    0.0600
61     H61    -0.8381    0.6232    1.8830 H        1 ZINC000043131420    0.0600
62     H62     0.2027   -3.3601    0.8253 H        1 ZINC000043131420    0.0400
63     H63    -0.7048   -4.5532   -0.1345 H        1 ZINC000043131420    0.0400
64     H64     1.0424   -4.3407   -0.4001 H        1 ZINC000043131420    0.0900
@<TRIPOS>BOND
1     1     2     1
2     1     41    1
3     1     42    1
4     1     43    1
5     2     3     1
6     3     38    ar
7     3     4     ar
8     4     5     ar
9     4     44    1
10    5     6     1
11    5     34    ar
12    6     7     1
13    6     45    1
14    7     33    ar
15    7     8     ar
16    8     9     ar
17    9     10    ar
18    9     46    1
19    10    11    1
20    10    12    ar
21    12    13    1
22    12    33    ar
23    13    14    1
24    13    47    1
25    14    32    ar
26    14    15    ar
27    15    16    ar
28    15    48    1
29    16    17    ar
30    16    49    1
31    17    31    ar
32    17    18    1
33    18    19    1
34    19    20    1
35    19    21    1
36    19    22    1
37    20    50    1
38    20    51    1
39    20    52    1
40    21    53    1
41    21    54    1
42    21    55    1
43    22    23    2
44    22    24    am
45    24    25    1
46    24    31    1
47    25    26    1
48    25    56    1
49    25    57    1
50    26    27    1
51    27    28    ar
52    27    29    ar
53    27    30    ar
54    31    32    ar
55    34    35    ar
56    34    58    1
57    35    36    1
58    35    38    ar
59    36    37    1
60    37    59    1
61    37    60    1
62    37    61    1
63    38    39    1
64    39    40    1
65    40    62    1
66    40    63    1
67    40    64    1
@<TRIPOS>SUBSTRUCTURE
1   ZINC000043131420 1     RESIDUE    1   A     ZIN   1
