@<TRIPOS>MOLECULE
ZINC000004098643
56    60    1     0     0
SMALL
USER_CHARGES
@<TRIPOS>ATOM
1      O1     -0.0163    1.3543    0.0095 O.3      1 ZINC000004098643   -0.5000
2      C2      0.0021   -0.0041    0.0020 C.ar     1 ZINC000004098643    0.1100
3      C3      0.0057   -0.6897   -1.2060 C.ar     1 ZINC000004098643   -0.1400
4      C4      0.0239   -2.0675   -1.2186 C.ar     1 ZINC000004098643   -0.0900
5      C5      0.0392   -2.7751   -0.0132 C.ar     1 ZINC000004098643   -0.0700
6      C6      0.0592   -4.2484   -0.0213 C.2      1 ZINC000004098643   -0.0900
7      C7      0.0739   -4.9260    1.1378 C.2      1 ZINC000004098643   -0.1100
8      C8      0.0938   -6.3998    1.1296 C.ar     1 ZINC000004098643    0.0200
9      C9      0.1034   -7.0949   -0.0829 C.ar     1 ZINC000004098643   -0.1700
10     C10     0.1221   -8.4796   -0.0756 C.ar     1 ZINC000004098643    0.1500
11     O11     0.1356   -9.1609   -1.2514 O.3      1 ZINC000004098643   -0.4900
12     C12     0.1274   -9.1746    1.1228 C.ar     1 ZINC000004098643   -0.1700
13     C13     0.1149   -8.4918    2.3377 C.ar     1 ZINC000004098643    0.1300
14     C14     0.1091   -7.1056    2.3302 C.ar     1 ZINC000004098643   -0.1600
15     C15     0.1208   -6.6516    3.7769 C.3      1 ZINC000004098643   -0.0200
16     H16     0.8585   -5.8644    3.9323 H        1 ZINC000004098643    0.1100
17     C17    -1.2489   -6.1954    4.2094 C.ar     1 ZINC000004098643   -0.0400
18     C18    -2.3190   -7.0670    4.1431 C.ar     1 ZINC000004098643   -0.1400
19     C19    -3.5812   -6.6493    4.5407 C.ar     1 ZINC000004098643    0.1300
20     O20    -4.6332   -7.5072    4.4757 O.3      1 ZINC000004098643   -0.4900
21     C21    -3.7681   -5.3564    5.0047 C.ar     1 ZINC000004098643   -0.1700
22     C22    -2.6928   -4.4837    5.0702 C.ar     1 ZINC000004098643    0.1300
23     O23    -2.8727   -3.2158    5.5250 O.3      1 ZINC000004098643   -0.4900
24     C24    -1.4314   -4.9080    4.6767 C.ar     1 ZINC000004098643   -0.1500
25     C25     0.5314   -7.9477    4.5152 C.3      1 ZINC000004098643    0.1400
26     H26     0.0112   -8.0300    5.4695 H        1 ZINC000004098643    0.1300
27     C27     2.0240   -7.9975    4.7167 C.ar     1 ZINC000004098643   -0.1200
28     C28     2.8485   -8.3827    3.6758 C.ar     1 ZINC000004098643   -0.0800
29     C29     4.2171   -8.4292    3.8580 C.ar     1 ZINC000004098643   -0.1400
30     C30     4.7641   -8.0886    5.0866 C.ar     1 ZINC000004098643    0.1100
31     O31     6.1102   -8.1332    5.2682 O.3      1 ZINC000004098643   -0.5000
32     C32     3.9347   -7.7021    6.1294 C.ar     1 ZINC000004098643   -0.1400
33     C33     2.5671   -7.6526    5.9406 C.ar     1 ZINC000004098643   -0.0900
34     O34     0.1056   -8.9782    3.6097 O.3      1 ZINC000004098643   -0.2800
35     C35     0.0360   -2.0807    1.1999 C.ar     1 ZINC000004098643   -0.0900
36     C36     0.0230   -0.7028    1.2023 C.ar     1 ZINC000004098643   -0.1400
37     H37     0.8616    1.7596    0.0033 H        1 ZINC000004098643    0.3900
38     H38    -0.0061   -0.1421   -2.1368 H        1 ZINC000004098643    0.1300
39     H39     0.0260   -2.5998   -2.1583 H        1 ZINC000004098643    0.1300
40     H40     0.0620   -4.7832   -0.9596 H        1 ZINC000004098643    0.1300
41     H41     0.0710   -4.3911    2.0760 H        1 ZINC000004098643    0.1200
42     H42     0.0960   -6.5560   -1.0188 H        1 ZINC000004098643    0.1400
43     H43     1.0229   -9.3462   -1.5884 H        1 ZINC000004098643    0.4000
44     H44     0.1411  -10.2545    1.1155 H        1 ZINC000004098643    0.1400
45     H45    -2.1730   -8.0741    3.7812 H        1 ZINC000004098643    0.1300
46     H46    -4.7679   -8.0261    5.2805 H        1 ZINC000004098643    0.3900
47     H47    -4.7497   -5.0293    5.3142 H        1 ZINC000004098643    0.1400
48     H48    -2.7548   -3.1201    6.4800 H        1 ZINC000004098643    0.3900
49     H49    -0.5935   -4.2286    4.7276 H        1 ZINC000004098643    0.1300
50     H50     2.4222   -8.6477    2.7195 H        1 ZINC000004098643    0.1300
51     H51     4.8607   -8.7307    3.0448 H        1 ZINC000004098643    0.1300
52     H52     6.5628   -7.3046    5.0595 H        1 ZINC000004098643    0.3900
53     H53     4.3581   -7.4368    7.0869 H        1 ZINC000004098643    0.1300
54     H54     1.9210   -7.3514    6.7519 H        1 ZINC000004098643    0.1300
55     H55     0.0477   -2.6231    2.1337 H        1 ZINC000004098643    0.1300
56     H56     0.0208   -0.1653    2.1391 H        1 ZINC000004098643    0.1300
@<TRIPOS>BOND
1     1     2     1
2     1     37    1
3     2     36    ar
4     2     3     ar
5     3     4     ar
6     3     38    1
7     4     5     ar
8     4     39    1
9     5     6     1
10    5     35    ar
11    6     7     2
12    6     40    1
13    7     8     1
14    7     41    1
15    8     14    ar
16    8     9     ar
17    9     10    ar
18    9     42    1
19    10    11    1
20    10    12    ar
21    11    43    1
22    12    13    ar
23    12    44    1
24    13    34    1
25    13    14    ar
26    14    15    1
27    15    16    1
28    15    17    1
29    15    25    1
30    17    24    ar
31    17    18    ar
32    18    19    ar
33    18    45    1
34    19    20    1
35    19    21    ar
36    20    46    1
37    21    22    ar
38    21    47    1
39    22    23    1
40    22    24    ar
41    23    48    1
42    24    49    1
43    25    26    1
44    25    27    1
45    25    34    1
46    27    33    ar
47    27    28    ar
48    28    29    ar
49    28    50    1
50    29    30    ar
51    29    51    1
52    30    31    1
53    30    32    ar
54    31    52    1
55    32    33    ar
56    32    53    1
57    33    54    1
58    35    36    ar
59    35    55    1
60    36    56    1
@<TRIPOS>SUBSTRUCTURE
1   ZINC000004098643 1     RESIDUE    1   A     ZIN   1
