@<TRIPOS>MOLECULE
ZINC000000275217
34    35    1     0     0
SMALL
USER_CHARGES
@<TRIPOS>ATOM
1      O1     -0.0705   -0.0796    1.0467 O.2      1 ZINC000000275217   -0.1500
2      N2     -0.0969    1.1278    1.2042 N.pl3    1 ZINC000000275217    0.0200
3      O3      0.9342    1.7349    1.4321 O.2      1 ZINC000000275217   -0.1500
4      C4     -1.3810    1.8583    1.1127 C.ar     1 ZINC000000275217   -0.0400
5      C5     -1.4083    3.2305    1.2863 C.ar     1 ZINC000000275217   -0.0300
6      C6     -2.6043    3.9217    1.2020 C.ar     1 ZINC000000275217   -0.1100
7      C7     -3.7784    3.2458    0.9440 C.ar     1 ZINC000000275217   -0.0400
8      C8     -3.7585    1.8601    0.7677 C.ar     1 ZINC000000275217   -0.0600
9      C9     -5.0100    1.1303    0.4915 C.2      1 ZINC000000275217    0.1400
10     N10    -6.1331    1.7753    0.4119 N.2      1 ZINC000000275217   -0.2700
11     N11    -7.3220    1.0820    0.1495 N.am     1 ZINC000000275217   -0.5400
12     C12    -8.4885    1.7520    0.0668 C.2      1 ZINC000000275217    0.5900
13     S13    -9.9522    0.8961   -0.1697 S.2      1 ZINC000000275217   -0.6100
14     N14    -8.5027    3.0957    0.1703 N.am     1 ZINC000000275217   -0.5500
15     C15    -7.2512    3.8696    0.1591 C.3      1 ZINC000000275217    0.0200
16     C16    -7.3862    4.9922   -0.8760 C.3      1 ZINC000000275217    0.0400
17     O17    -8.5850    5.7275   -0.6193 O.3      1 ZINC000000275217   -0.3800
18     C18    -9.7826    4.9567   -0.7445 C.3      1 ZINC000000275217    0.0500
19     C19    -9.7706    3.8327    0.2917 C.3      1 ZINC000000275217    0.0600
20     C20    -2.5470    1.1698    0.8489 C.ar     1 ZINC000000275217   -0.0200
21     H21    -0.4919    3.7649    1.4889 H        1 ZINC000000275217    0.1600
22     H22    -2.6182    4.9929    1.3389 H        1 ZINC000000275217    0.1600
23     H23    -4.7111    3.7864    0.8789 H        1 ZINC000000275217    0.1500
24     H24    -4.9916    0.0590    0.3556 H        1 ZINC000000275217    0.1400
25     H25    -7.3055    0.1199    0.0275 H        1 ZINC000000275217    0.4200
26     H26    -7.0762    4.2989    1.1455 H        1 ZINC000000275217    0.0800
27     H27    -6.4196    3.2189   -0.1115 H        1 ZINC000000275217    0.1600
28     H28    -6.5273    5.6594   -0.8036 H        1 ZINC000000275217    0.1100
29     H29    -7.4304    4.5617   -1.8764 H        1 ZINC000000275217    0.0600
30     H30   -10.6477    5.5984   -0.5774 H        1 ZINC000000275217    0.1200
31     H31    -9.8354    4.5260   -1.7444 H        1 ZINC000000275217    0.0600
32     H32   -10.6077    3.1583    0.1114 H        1 ZINC000000275217    0.1400
33     H33    -9.8485    4.2558    1.2932 H        1 ZINC000000275217    0.0900
34     H34    -2.5242    0.0986    0.7132 H        1 ZINC000000275217    0.1600
@<TRIPOS>BOND
1     1     2     2
2     2     3     2
3     2     4     1
4     4     20    ar
5     4     5     ar
6     5     6     ar
7     5     21    1
8     6     7     ar
9     6     22    1
10    7     8     ar
11    7     23    1
12    8     9     1
13    8     20    ar
14    9     10    2
15    9     24    1
16    10    11    1
17    11    12    am
18    11    25    1
19    12    13    2
20    12    14    am
21    14    19    1
22    14    15    1
23    15    16    1
24    15    26    1
25    15    27    1
26    16    17    1
27    16    28    1
28    16    29    1
29    17    18    1
30    18    19    1
31    18    30    1
32    18    31    1
33    19    32    1
34    19    33    1
35    20    34    1
@<TRIPOS>SUBSTRUCTURE
1   ZINC000000275217 1     RESIDUE    1   A     ZIN   1
