@<TRIPOS>MOLECULE
ZINC000005009026
42    44    1     0     0
SMALL
USER_CHARGES
@<TRIPOS>ATOM
1      O1      0.0021   -0.0041    0.0020 O.2      1 ZINC000005009026   -0.2800
2      N2     -0.0144    1.2138    0.0087 N.pl3    1 ZINC000005009026    0.0700
3      O3      1.0320    1.8371    0.0021 O.2      1 ZINC000005009026   -0.1400
4      C4     -1.3061    1.9363    0.0188 C.ar     1 ZINC000005009026   -0.0700
5      C5     -2.4923    1.2298    0.0263 C.ar     1 ZINC000005009026   -0.1000
6      C6     -3.7043    1.9077    0.0358 C.ar     1 ZINC000005009026    0.2000
7      N7     -4.9071    1.1913    0.0434 N.pl3    1 ZINC000005009026   -1.0900
8      S8     -6.3524    1.9997    0.0547 S.o2     1 ZINC000005009026    2.5900
9      O9     -6.4279    2.6692    1.3058 O.2      1 ZINC000005009026   -1.0400
10     O10    -6.4456    2.6723   -1.1936 O.2      1 ZINC000005009026   -1.0400
11     C11    -7.6291    0.7854    0.0622 C.ar     1 ZINC000005009026   -0.6000
12     C12    -8.1345    0.3065   -1.1319 C.ar     1 ZINC000005009026   -0.0300
13     C13    -9.1362   -0.6462   -1.1260 C.ar     1 ZINC000005009026   -0.1500
14     C14    -9.6322   -1.1201    0.0741 C.ar     1 ZINC000005009026   -0.0900
15     C15    -9.1261   -0.6418    1.2683 C.ar     1 ZINC000005009026   -0.1500
16     C16    -8.1215    0.3077    1.2623 C.ar     1 ZINC000005009026   -0.0300
17     C17    -3.7232    3.2960    0.0381 C.ar     1 ZINC000005009026   -0.1400
18     C18    -2.5367    4.0028    0.0310 C.ar     1 ZINC000005009026   -0.2100
19     C19    -1.3249    3.3250    0.0264 C.ar     1 ZINC000005009026    0.2700
20     N20    -0.1222    4.0414    0.0192 N.pl3    1 ZINC000005009026   -1.0400
21     S21    -0.1447    5.6972    0.0161 S.o2     1 ZINC000005009026    2.5900
22     O22    -0.7006    6.0886   -1.2317 O.2      1 ZINC000005009026   -1.0300
23     O23    -0.6885    6.0935    1.2677 O.2      1 ZINC000005009026   -1.0300
24     C24     1.5311    6.2416    0.0070 C.ar     1 ZINC000005009026   -0.6000
25     C25     2.1960    6.4521    1.2005 C.ar     1 ZINC000005009026   -0.0200
26     C26     3.5107    6.8792    1.1933 C.ar     1 ZINC000005009026   -0.1500
27     C27     4.1606    7.0954   -0.0074 C.ar     1 ZINC000005009026   -0.0900
28     C28     3.4960    6.8841   -1.2009 C.ar     1 ZINC000005009026   -0.1500
29     C29     2.1826    6.4529   -1.1938 C.ar     1 ZINC000005009026   -0.0200
30     H30    -2.4776    0.1499    0.0245 H        1 ZINC000005009026    0.1300
31     H31    -7.7471    0.6768   -2.0696 H        1 ZINC000005009026    0.1400
32     H32    -9.5316   -1.0199   -2.0590 H        1 ZINC000005009026    0.1200
33     H33   -10.4153   -1.8639    0.0787 H        1 ZINC000005009026    0.1200
34     H34    -9.5139   -1.0119    2.2059 H        1 ZINC000005009026    0.1200
35     H35    -7.7261    0.6813    2.1953 H        1 ZINC000005009026    0.1400
36     H36    -4.6658    3.8232    0.0450 H        1 ZINC000005009026    0.1000
37     H37    -2.5513    5.0827    0.0328 H        1 ZINC000005009026    0.1100
38     H38     1.6882    6.2831    2.1386 H        1 ZINC000005009026    0.1400
39     H39     4.0299    7.0443    2.1258 H        1 ZINC000005009026    0.1200
40     H40     5.1875    7.4298   -0.0130 H        1 ZINC000005009026    0.1200
41     H41     4.0037    7.0534   -2.1390 H        1 ZINC000005009026    0.1200
42     H42     1.6634    6.2878   -2.1262 H        1 ZINC000005009026    0.1400
@<TRIPOS>BOND
1     1     2     2
2     2     3     2
3     2     4     1
4     4     19    ar
5     4     5     ar
6     5     6     ar
7     5     30    1
8     6     7     1
9     6     17    ar
10    7     8     1
11    8     9     2
12    8     10    2
13    8     11    1
14    11    16    ar
15    11    12    ar
16    12    13    ar
17    12    31    1
18    13    14    ar
19    13    32    1
20    14    15    ar
21    14    33    1
22    15    16    ar
23    15    34    1
24    16    35    1
25    17    18    ar
26    17    36    1
27    18    19    ar
28    18    37    1
29    19    20    1
30    20    21    1
31    21    22    2
32    21    23    2
33    21    24    1
34    24    29    ar
35    24    25    ar
36    25    26    ar
37    25    38    1
38    26    27    ar
39    26    39    1
40    27    28    ar
41    27    40    1
42    28    29    ar
43    28    41    1
44    29    42    1
@<TRIPOS>SUBSTRUCTURE
1   ZINC000005009026 1     RESIDUE    1   A     ZIN   1
