@<TRIPOS>MOLECULE
ZINC000072314933
95    100   1     0     0
SMALL
USER_CHARGES
@<TRIPOS>ATOM
1      C1     -1.5768    2.7597   -1.6023 C.3      1 ZINC000072314933    0.0200
2      O2     -1.9969    2.6142   -0.2442 O.3      1 ZINC000072314933   -0.3000
3      C3     -2.8276    1.5749    0.0372 C.ar     1 ZINC000072314933    0.1100
4      C4     -3.2252    0.7111   -0.9675 C.ar     1 ZINC000072314933   -0.1700
5      C5     -4.0719   -0.3508   -0.6851 C.ar     1 ZINC000072314933   -0.0700
6      C6     -4.5211   -0.5506    0.6027 C.ar     1 ZINC000072314933   -0.0900
7      C7     -4.1251    0.3138    1.6139 C.ar     1 ZINC000072314933   -0.1600
8      C8     -3.2774    1.3714    1.3387 C.ar     1 ZINC000072314933    0.1200
9      O9     -2.8923    2.2146    2.3339 O.3      1 ZINC000072314933   -0.2900
10     C10    -3.3467    1.9103    3.6541 C.3      1 ZINC000072314933    0.0800
11     C11    -2.3776    2.5063    4.6771 C.3      1 ZINC000072314933   -0.1500
12     C12    -4.7401    2.5066    3.8639 C.3      1 ZINC000072314933   -0.1800
13     C13    -5.4362   -1.6911    0.9504 C.3      1 ZINC000072314933    0.2400
14     H14    -6.1588   -1.3520    1.6927 H        1 ZINC000072314933    0.1000
15     C15    -4.6196   -2.8127    1.5389 C.ar     1 ZINC000072314933   -0.0900
16     C16    -3.9133   -3.6626    0.7083 C.ar     1 ZINC000072314933   -0.0900
17     C17    -3.1642   -4.6914    1.2474 C.ar     1 ZINC000072314933   -0.1100
18     C18    -3.1213   -4.8706    2.6186 C.ar     1 ZINC000072314933   -0.0300
19     Cl19   -2.1802   -6.1623    3.2965 Cl       1 ZINC000072314933   -0.0600
20     C20    -3.8284   -4.0197    3.4493 C.ar     1 ZINC000072314933   -0.1100
21     C21    -4.5726   -2.9878    2.9094 C.ar     1 ZINC000072314933   -0.0900
22     N22    -6.1513   -2.1890   -0.2119 N.am     1 ZINC000072314933   -0.5500
23     C23    -7.3450   -2.8933   -0.0040 C.ar     1 ZINC000072314933    0.0900
24     C24    -7.3374   -4.2816    0.0163 C.ar     1 ZINC000072314933   -0.0500
25     C25    -8.5132   -4.9756    0.2214 C.ar     1 ZINC000072314933   -0.1800
26     C26    -9.7037   -4.2848    0.4075 C.ar     1 ZINC000072314933    0.2200
27     N27   -10.8951   -4.9877    0.6159 N.pl3    1 ZINC000072314933   -0.6300
28     C28   -10.8871   -6.4526    0.6378 C.3      1 ZINC000072314933    0.0900
29     C29   -12.1508   -4.2591    0.8122 C.3      1 ZINC000072314933    0.1300
30     C30   -12.8235   -4.0280   -0.5424 C.3      1 ZINC000072314933   -0.1200
31     C31   -13.2269   -5.3740   -1.1477 C.3      1 ZINC000072314933   -0.1100
32     C32   -14.2036   -6.0836   -0.2078 C.3      1 ZINC000072314933   -0.1500
33     C33   -15.4494   -5.2162   -0.0172 C.3      1 ZINC000072314933    0.0200
34     N34   -16.3871   -5.8975    0.8853 N.4      1 ZINC000072314933   -0.3900
35     H35   -15.9449   -6.0507    1.7792 H        1 ZINC000072314933    0.4300
36     C36   -16.7809   -7.1897    0.3025 C.3      1 ZINC000072314933   -0.0300
37     C37   -17.5481   -7.9920    1.3553 C.3      1 ZINC000072314933    0.0900
38     N38   -18.6149   -7.1725    1.9248 N.am     1 ZINC000072314933   -0.6100
39     C39   -19.7009   -7.8363    2.6503 C.3      1 ZINC000072314933    0.0700
40     C40   -18.6392   -5.8397    1.8105 C.2      1 ZINC000072314933    0.5000
41     O41   -19.5471   -5.2275    2.3319 O.2      1 ZINC000072314933   -0.4900
42     C42   -17.5860   -5.0693    1.0652 C.3      1 ZINC000072314933   -0.0200
43     C43   -15.0459   -3.8702    0.5881 C.3      1 ZINC000072314933   -0.1500
44     C44   -14.0693   -3.1605   -0.3518 C.3      1 ZINC000072314933   -0.1100
45     C45    -9.7111   -2.8961    0.3872 C.ar     1 ZINC000072314933   -0.1900
46     C46    -8.5342   -2.2025    0.1873 C.ar     1 ZINC000072314933   -0.0600
47     C47    -5.7334   -2.0119   -1.4667 C.2      1 ZINC000072314933    0.5300
48     O48    -6.3964   -2.4761   -2.3702 O.2      1 ZINC000072314933   -0.5300
49     C49    -4.4809   -1.2648   -1.8076 C.3      1 ZINC000072314933   -0.0900
50     H50    -0.9195    3.6249   -1.6886 H        1 ZINC000072314933    0.1000
51     H51    -1.0408    1.8635   -1.9147 H        1 ZINC000072314933    0.0600
52     H52    -2.4498    2.9016   -2.2394 H        1 ZINC000072314933    0.0600
53     H53    -2.8747    0.8645   -1.9774 H        1 ZINC000072314933    0.1400
54     H54    -4.4781    0.1574    2.6225 H        1 ZINC000072314933    0.1400
55     H55    -3.3912    0.8289    3.7828 H        1 ZINC000072314933    0.0700
56     H56    -2.3331    3.5878    4.5483 H        1 ZINC000072314933    0.0700
57     H57    -2.7243    2.2742    5.6841 H        1 ZINC000072314933    0.0800
58     H58    -1.3850    2.0815    4.5276 H        1 ZINC000072314933    0.0700
59     H59    -5.4305    2.0820    3.1351 H        1 ZINC000072314933    0.0600
60     H60    -5.0867    2.2745    4.8709 H        1 ZINC000072314933    0.0700
61     H61    -4.6956    3.5881    3.7351 H        1 ZINC000072314933    0.0700
62     H62    -3.9472   -3.5228   -0.3621 H        1 ZINC000072314933    0.1200
63     H63    -2.6128   -5.3556    0.5984 H        1 ZINC000072314933    0.1400
64     H64    -3.7955   -4.1593    4.5198 H        1 ZINC000072314933    0.1400
65     H65    -5.1243   -2.3232    3.5578 H        1 ZINC000072314933    0.1300
66     H66    -6.4117   -4.8187   -0.1288 H        1 ZINC000072314933    0.1200
67     H67    -8.5073   -6.0554    0.2368 H        1 ZINC000072314933    0.1300
68     H68   -10.7173   -6.7998    1.6570 H        1 ZINC000072314933    0.0500
69     H69   -11.8471   -6.8265    0.2817 H        1 ZINC000072314933    0.0600
70     H70   -10.0910   -6.8213   -0.0090 H        1 ZINC000072314933    0.0700
71     H71   -12.8131   -4.8423    1.4520 H        1 ZINC000072314933    0.0700
72     H72   -11.9435   -3.2984    1.2835 H        1 ZINC000072314933    0.0800
73     H73   -12.1277   -3.5224   -1.2121 H        1 ZINC000072314933    0.0900
74     H74   -13.7062   -5.2093   -2.1128 H        1 ZINC000072314933    0.0800
75     H75   -12.3394   -5.9919   -1.2835 H        1 ZINC000072314933    0.0900
76     H76   -14.4910   -7.0425   -0.6390 H        1 ZINC000072314933    0.0900
77     H77   -13.7244   -6.2483    0.7573 H        1 ZINC000072314933    0.0900
78     H78   -15.9286   -5.0515   -0.9822 H        1 ZINC000072314933    0.1400
79     H79   -17.4194   -7.0201   -0.5645 H        1 ZINC000072314933    0.1400
80     H80   -15.8903   -7.7409    0.0006 H        1 ZINC000072314933    0.1600
81     H81   -17.9810   -8.8780    0.8908 H        1 ZINC000072314933    0.1300
82     H82   -16.8642   -8.2974    2.1472 H        1 ZINC000072314933    0.1000
83     H83   -19.4378   -7.9158    3.7050 H        1 ZINC000072314933    0.0700
84     H84   -20.6162   -7.2535    2.5471 H        1 ZINC000072314933    0.0900
85     H85   -19.8566   -8.8334    2.2384 H        1 ZINC000072314933    0.0900
86     H86   -17.3284   -4.1721    1.6281 H        1 ZINC000072314933    0.1700
87     H87   -17.9728   -4.7815    0.0876 H        1 ZINC000072314933    0.1600
88     H88   -15.9335   -3.2522    0.7239 H        1 ZINC000072314933    0.0900
89     H89   -14.5667   -4.0348    1.5532 H        1 ZINC000072314933    0.0900
90     H90   -13.7818   -2.2016    0.0794 H        1 ZINC000072314933    0.0900
91     H91   -14.5485   -2.9959   -1.3169 H        1 ZINC000072314933    0.0800
92     H92   -10.6368   -2.3588    0.5316 H        1 ZINC000072314933    0.1200
93     H93    -8.5399   -1.1226    0.1715 H        1 ZINC000072314933    0.1200
94     H94    -4.6513   -0.6728   -2.7068 H        1 ZINC000072314933    0.1200
95     H95    -3.6793   -1.9786   -1.9973 H        1 ZINC000072314933    0.1200
@<TRIPOS>BOND
1     1     2     1
2     1     50    1
3     1     51    1
4     1     52    1
5     2     3     1
6     3     8     ar
7     3     4     ar
8     4     5     ar
9     4     53    1
10    5     49    1
11    5     6     ar
12    6     7     ar
13    6     13    1
14    7     8     ar
15    7     54    1
16    8     9     1
17    9     10    1
18    10    11    1
19    10    12    1
20    10    55    1
21    11    56    1
22    11    57    1
23    11    58    1
24    12    59    1
25    12    60    1
26    12    61    1
27    13    14    1
28    13    15    1
29    13    22    1
30    15    21    ar
31    15    16    ar
32    16    17    ar
33    16    62    1
34    17    18    ar
35    17    63    1
36    18    19    1
37    18    20    ar
38    20    21    ar
39    20    64    1
40    21    65    1
41    22    23    1
42    22    47    am
43    23    46    ar
44    23    24    ar
45    24    25    ar
46    24    66    1
47    25    26    ar
48    25    67    1
49    26    27    1
50    26    45    ar
51    27    28    1
52    27    29    1
53    28    68    1
54    28    69    1
55    28    70    1
56    29    30    1
57    29    71    1
58    29    72    1
59    30    44    1
60    30    31    1
61    30    73    1
62    31    32    1
63    31    74    1
64    31    75    1
65    32    33    1
66    32    76    1
67    32    77    1
68    33    34    1
69    33    43    1
70    33    78    1
71    34    35    1
72    34    42    1
73    34    36    1
74    36    37    1
75    36    79    1
76    36    80    1
77    37    38    1
78    37    81    1
79    37    82    1
80    38    39    1
81    38    40    am
82    39    83    1
83    39    84    1
84    39    85    1
85    40    41    2
86    40    42    1
87    42    86    1
88    42    87    1
89    43    44    1
90    43    88    1
91    43    89    1
92    44    90    1
93    44    91    1
94    45    46    ar
95    45    92    1
96    46    93    1
97    47    48    2
98    47    49    1
99    49    94    1
100   49    95    1
@<TRIPOS>SUBSTRUCTURE
1   ZINC000072314933 1     RESIDUE    1   A     ZIN   1
