@<TRIPOS>MOLECULE
ZINC000003814479
35    36    1     0     0
SMALL
USER_CHARGES
@<TRIPOS>ATOM
1      N1     -0.0097    1.3700    0.0048 N.pl3    1 ZINC000003814479   -0.7900
2      C2      0.0054   -0.0040   -0.0003 C.ar     1 ZINC000003814479    0.6800
3      N3     -1.1560   -0.6396    0.0321 N.ar     1 ZINC000003814479   -0.6600
4      C4     -1.2246   -1.9641    0.0297 C.ar     1 ZINC000003814479    0.5800
5      N5     -2.4348   -2.6098    0.0631 N.pl3    1 ZINC000003814479   -0.7800
6      C6      0.0388   -2.7204   -0.0104 C.ar     1 ZINC000003814479   -0.3000
7      N7      0.0551   -4.0438   -0.0158 N.2      1 ZINC000003814479   -0.3000
8      O8      1.1137   -4.6402    0.0697 O.2      1 ZINC000003814479    0.0300
9      C9      1.2818   -1.9338   -0.0447 C.ar     1 ZINC000003814479    0.4900
10     O10     2.4878   -2.5402   -0.0826 O.3      1 ZINC000003814479   -0.2500
11     C11     3.6388   -1.6938   -0.1140 C.3      1 ZINC000003814479    0.0600
12     C12     4.9034   -2.5540   -0.1545 C.3      1 ZINC000003814479   -0.0900
13     C13     4.9435   -3.3405   -1.4663 C.3      1 ZINC000003814479   -0.1200
14     C14     6.2082   -4.2007   -1.5068 C.3      1 ZINC000003814479   -0.1200
15     C15     7.4411   -3.2994   -1.4146 C.3      1 ZINC000003814479   -0.1200
16     C16     7.4011   -2.5129   -0.1029 C.3      1 ZINC000003814479   -0.1200
17     C17     6.1364   -1.6528   -0.0624 C.3      1 ZINC000003814479   -0.1100
18     N18     1.1821   -0.6146   -0.0427 N.ar     1 ZINC000003814479   -0.6700
19     H19     0.8244    1.8643   -0.0222 H        1 ZINC000003814479    0.4200
20     H20    -0.8547    1.8456    0.0313 H        1 ZINC000003814479    0.4200
21     H21    -3.2539   -2.1000    0.1638 H        1 ZINC000003814479    0.4200
22     H22    -2.4713   -3.5761   -0.0140 H        1 ZINC000003814479    0.4300
23     H23     3.6008   -1.0616   -1.0012 H        1 ZINC000003814479    0.0700
24     H24     3.6537   -1.0676    0.7780 H        1 ZINC000003814479    0.0700
25     H25     4.8975   -3.2485    0.6855 H        1 ZINC000003814479    0.0900
26     H26     4.0651   -3.9826   -1.5319 H        1 ZINC000003814479    0.0800
27     H27     4.9495   -2.6459   -2.3063 H        1 ZINC000003814479    0.0600
28     H28     6.2022   -4.8952   -0.6667 H        1 ZINC000003814479    0.0700
29     H29     6.2367   -4.7610   -2.4413 H        1 ZINC000003814479    0.0600
30     H30     8.3421   -3.9122   -1.4435 H        1 ZINC000003814479    0.0600
31     H31     7.4471   -2.6049   -2.2547 H        1 ZINC000003814479    0.0600
32     H32     7.3951   -3.2075    0.7372 H        1 ZINC000003814479    0.0600
33     H33     8.2794   -1.8709   -0.0372 H        1 ZINC000003814479    0.0600
34     H34     6.1424   -0.9582   -0.9024 H        1 ZINC000003814479    0.0600
35     H35     6.1079   -1.0924    0.8721 H        1 ZINC000003814479    0.0600
@<TRIPOS>BOND
1     1     2     1
2     1     19    1
3     1     20    1
4     2     18    ar
5     2     3     ar
6     3     4     ar
7     4     5     1
8     4     6     ar
9     5     21    1
10    5     22    1
11    6     7     1
12    6     9     ar
13    7     8     2
14    9     10    1
15    9     18    ar
16    10    11    1
17    11    12    1
18    11    23    1
19    11    24    1
20    12    17    1
21    12    13    1
22    12    25    1
23    13    14    1
24    13    26    1
25    13    27    1
26    14    15    1
27    14    28    1
28    14    29    1
29    15    16    1
30    15    30    1
31    15    31    1
32    16    17    1
33    16    32    1
34    16    33    1
35    17    34    1
36    17    35    1
@<TRIPOS>SUBSTRUCTURE
1   ZINC000003814479 1     RESIDUE    1   A     ZIN   1
