@<TRIPOS>MOLECULE
ZINC000201766361
52    54    1     0     0
SMALL
USER_CHARGES
@<TRIPOS>ATOM
1      C1     -0.9120    1.3260    0.5315 C.3      1 ZINC000201766361   -0.1500
2      C2     -0.4354   -0.1023    0.2598 C.3      1 ZINC000201766361    0.0600
3      O3      0.3784   -0.5478    1.3467 O.3      1 ZINC000201766361   -0.3500
4      C4      0.8824   -1.7966    1.2629 C.2      1 ZINC000201766361    0.5500
5      O5      0.6367   -2.4879    0.2924 O.2      1 ZINC000201766361   -0.5000
6      C6      1.7233   -2.3189    2.3380 C.2      1 ZINC000201766361   -0.3700
7      C7      2.3015   -3.5583    2.3802 C.2      1 ZINC000201766361    0.2000
8      C8      2.1376   -4.5782    1.2829 C.3      1 ZINC000201766361   -0.0900
9      N9      3.0095   -3.7788    3.4578 N.2      1 ZINC000201766361   -0.5100
10     C10     3.0765   -2.8195    4.3349 C.2      1 ZINC000201766361    0.2500
11     N11     3.7795   -2.8868    5.5248 N.am     1 ZINC000201766361   -0.6100
12     C12     3.7838   -1.8333    6.3655 C.2      1 ZINC000201766361    0.5100
13     O13     3.2522   -0.7939    6.0377 O.2      1 ZINC000201766361   -0.4700
14     C14     4.4492   -1.9472    7.7128 C.3      1 ZINC000201766361    0.1400
15     H15     5.4170   -2.4359    7.5999 H        1 ZINC000201766361    0.1500
16     C16     3.5663   -2.7744    8.6494 C.3      1 ZINC000201766361   -0.1100
17     C17     3.4698   -4.2085    8.1248 C.3      1 ZINC000201766361   -0.1600
18     C18     4.1790   -2.7843   10.0513 C.3      1 ZINC000201766361   -0.1400
19     N19     4.6407   -0.6091    8.2775 N.am     1 ZINC000201766361   -0.5400
20     C20     3.5707    0.1684    8.5053 C.2      1 ZINC000201766361    0.7100
21     O21     2.4679   -0.2654    8.2339 O.2      1 ZINC000201766361   -0.5200
22     N22     3.6659    1.4060    9.0212 N.am     1 ZINC000201766361   -0.6400
23     C23     4.9031    1.9432    9.3464 C.ar     1 ZINC000201766361    0.2000
24     C24     5.0244    3.2167    9.8797 C.ar     1 ZINC000201766361   -0.1700
25     C25     6.2750    3.7137   10.1900 C.ar     1 ZINC000201766361   -0.0400
26     C26     7.4121    2.9511    9.9735 C.ar     1 ZINC000201766361   -0.1600
27     C27     7.3110    1.6817    9.4431 C.ar     1 ZINC000201766361   -0.0100
28     C28     6.0558    1.1687    9.1263 C.ar     1 ZINC000201766361   -0.2000
29     C29     5.8903   -0.1837    8.5640 C.2      1 ZINC000201766361    0.5700
30     O30     6.8540   -0.8963    8.3593 O.2      1 ZINC000201766361   -0.4900
31     S31     2.1806   -1.4625    3.8083 S.3      1 ZINC000201766361    0.3400
32     H32    -0.0488    1.9839    0.6326 H        1 ZINC000201766361    0.0700
33     H33    -1.5327    1.6657   -0.2976 H        1 ZINC000201766361    0.0800
34     H34    -1.4939    1.3458    1.4530 H        1 ZINC000201766361    0.0700
35     H35    -1.2985   -0.7603    0.1587 H        1 ZINC000201766361    0.0700
36     H36     0.1465   -0.1221   -0.6616 H        1 ZINC000201766361    0.0700
37     H37     2.9319   -4.4513    0.5473 H        1 ZINC000201766361    0.0900
38     H38     2.1925   -5.5807    1.7075 H        1 ZINC000201766361    0.0800
39     H39     1.1700   -4.4405    0.8004 H        1 ZINC000201766361    0.1000
40     H40     4.2692   -3.6922    5.7540 H        1 ZINC000201766361    0.4300
41     H41     2.5697   -2.3351    8.6915 H        1 ZINC000201766361    0.1100
42     H42     4.4723   -4.6163    7.9954 H        1 ZINC000201766361    0.0700
43     H43     2.9181   -4.8201    8.8388 H        1 ZINC000201766361    0.0800
44     H44     2.9502   -4.2107    7.1667 H        1 ZINC000201766361    0.0600
45     H45     4.2478   -1.7627   10.4250 H        1 ZINC000201766361    0.0500
46     H46     3.5500   -3.3737   10.7185 H        1 ZINC000201766361    0.0700
47     H47     5.1756   -3.2237   10.0092 H        1 ZINC000201766361    0.0600
48     H48     2.8619    1.9287    9.1671 H        1 ZINC000201766361    0.4400
49     H49     4.1442    3.8184   10.0516 H        1 ZINC000201766361    0.1400
50     H50     6.3680    4.7064   10.6052 H        1 ZINC000201766361    0.1400
51     H51     8.3832    3.3534   10.2212 H        1 ZINC000201766361    0.1400
52     H52     8.1988    1.0900    9.2751 H        1 ZINC000201766361    0.1500
@<TRIPOS>BOND
1     1     2     1
2     1     32    1
3     1     33    1
4     1     34    1
5     2     3     1
6     2     35    1
7     2     36    1
8     3     4     1
9     4     5     2
10    4     6     1
11    6     31    1
12    6     7     2
13    7     8     1
14    7     9     1
15    8     37    1
16    8     38    1
17    8     39    1
18    9     10    2
19    10    11    1
20    10    31    1
21    11    12    am
22    11    40    1
23    12    13    2
24    12    14    1
25    14    15    1
26    14    16    1
27    14    19    1
28    16    17    1
29    16    18    1
30    16    41    1
31    17    42    1
32    17    43    1
33    17    44    1
34    18    45    1
35    18    46    1
36    18    47    1
37    19    29    am
38    19    20    am
39    20    21    2
40    20    22    am
41    22    23    1
42    22    48    1
43    23    28    ar
44    23    24    ar
45    24    25    ar
46    24    49    1
47    25    26    ar
48    25    50    1
49    26    27    ar
50    26    51    1
51    27    28    ar
52    27    52    1
53    28    29    1
54    29    30    2
@<TRIPOS>SUBSTRUCTURE
1   ZINC000201766361 1     RESIDUE    1   A     ZIN   1
