@<TRIPOS>MOLECULE
ZINC000003872070
28    30    1     0     0
SMALL
USER_CHARGES
@<TRIPOS>ATOM
1      O1      0.0021   -0.0041    0.0020 O.2      1 ZINC000003872070   -0.5000
2      C2     -0.0145    1.2160    0.0087 C.2      1 ZINC000003872070    0.4300
3      C3     -1.2344    1.9355    0.0302 C.2      1 ZINC000003872070   -0.3100
4      C4     -1.2109    3.2942    0.0376 C.2      1 ZINC000003872070    0.1900
5      C5     -2.4933    4.0263    0.0605 C.ar     1 ZINC000003872070   -0.0600
6      C6     -3.7009    3.3252    0.0800 C.ar     1 ZINC000003872070   -0.0900
7      C7     -4.8950    4.0154    0.1014 C.ar     1 ZINC000003872070   -0.1200
8      C8     -4.8981    5.3991    0.1030 C.ar     1 ZINC000003872070   -0.1100
9      C9     -3.7052    6.1001    0.0832 C.ar     1 ZINC000003872070   -0.1200
10     C10    -2.5037    5.4227    0.0685 C.ar     1 ZINC000003872070   -0.0800
11     O11    -0.0671    3.9965    0.0252 O.3      1 ZINC000003872070   -0.2300
12     C12     1.1443    3.4015    0.0045 C.ar     1 ZINC000003872070    0.1900
13     C13     2.3058    4.1574   -0.0072 C.ar     1 ZINC000003872070   -0.2900
14     C14     3.5421    3.5299   -0.0280 C.ar     1 ZINC000003872070    0.3200
15     O15     4.6752    4.2774   -0.0390 O.3      1 ZINC000003872070   -0.6900
16     C16     3.6326    2.1424   -0.0372 C.ar     1 ZINC000003872070   -0.2900
17     C17     2.4849    1.3712   -0.0257 C.ar     1 ZINC000003872070    0.2200
18     O18     2.5711    0.0169   -0.0347 O.3      1 ZINC000003872070   -0.4900
19     C19     1.2330    1.9983    0.0010 C.ar     1 ZINC000003872070   -0.3700
20     H20    -2.1767    1.4080    0.0404 H        1 ZINC000003872070    0.1500
21     H21    -3.7000    2.2452    0.0781 H        1 ZINC000003872070    0.1300
22     H22    -5.8297    3.4746    0.1165 H        1 ZINC000003872070    0.1300
23     H23    -5.8359    5.9345    0.1194 H        1 ZINC000003872070    0.1200
24     H24    -3.7149    7.1801    0.0839 H        1 ZINC000003872070    0.1300
25     H25    -1.5734    5.9710    0.0532 H        1 ZINC000003872070    0.1400
26     H26     2.2480    5.2358   -0.0006 H        1 ZINC000003872070    0.1200
27     H27     4.6017    1.6659   -0.0538 H        1 ZINC000003872070    0.1200
28     H28     2.6083   -0.3807    0.8460 H        1 ZINC000003872070    0.3800
@<TRIPOS>BOND
1     1     2     2
2     2     19    1
3     2     3     1
4     3     4     2
5     3     20    1
6     4     5     1
7     4     11    1
8     5     10    ar
9     5     6     ar
10    6     7     ar
11    6     21    1
12    7     8     ar
13    7     22    1
14    8     9     ar
15    8     23    1
16    9     10    ar
17    9     24    1
18    10    25    1
19    11    12    1
20    12    19    ar
21    12    13    ar
22    13    14    ar
23    13    26    1
24    14    15    1
25    14    16    ar
26    16    17    ar
27    16    27    1
28    17    18    1
29    17    19    ar
30    18    28    1
@<TRIPOS>SUBSTRUCTURE
1   ZINC000003872070 1     RESIDUE    1   A     ZIN   1
