@<TRIPOS>MOLECULE
ZINC000005762063
  41   44    0    0    0
SMALL
USER_CHARGES
NO_NAME
@<TRIPOS>ATOM
    1 C1       -0.0187     1.5258     0.0104 C.3    1 <0>      -0.1700
    2 C2        0.0021    -0.0041     0.0020 C.3    1 <0>       0.1500
    3 C3       -1.4351    -0.5283     0.0261 C.3    1 <0>      -0.1300
    4 C4        0.6844    -0.4847    -1.2515 C.2    1 <0>      -0.2000
    5 C5        2.0035    -0.6662    -1.2639 C.2    1 <0>      -0.0800
    6 C6        2.7545    -0.3956    -0.0196 C.ar   1 <0>      -0.1600
    7 C7        2.0415    -0.3071     1.1850 C.ar   1 <0>       0.1400
    8 C8        2.7126    -0.0548     2.3683 C.ar   1 <0>      -0.1500
    9 C9        4.0842     0.1110     2.3654 C.ar   1 <0>      -0.0500
   10 C10       4.8039     0.0261     1.1747 C.ar   1 <0>      -0.0600
   11 C11       6.2762     0.2064     1.1833 C.2    1 <0>      -0.2500
   12 C12       7.1107    -0.8553     1.0434 C.2    1 <0>       0.1200
   13 O13       8.4394    -0.7400     1.0274 O.3    1 <0>      -0.2200
   14 C14       9.0497     0.3791     1.4618 C.ar   1 <0>       0.1800
   15 C15      10.4074     0.3729     1.7501 C.ar   1 <0>      -0.2900
   16 C16      11.0312     1.5303     2.1876 C.ar   1 <0>       0.3200
   17 O17      12.3590     1.5114     2.4688 O.3    1 <0>      -0.6900
   18 C18      10.3129     2.7111     2.3417 C.ar   1 <0>      -0.2900
   19 C19       8.9588     2.7394     2.0626 C.ar   1 <0>       0.2200
   20 O20       8.2542     3.8900     2.2073 O.3    1 <0>      -0.4900
   21 C21       8.3211     1.5709     1.6295 C.ar   1 <0>      -0.3700
   22 C22       6.8764     1.5464     1.3380 C.2    1 <0>       0.4400
   23 O23       6.2189     2.5680     1.2348 O.2    1 <0>      -0.4800
   24 C24       4.1377    -0.2296    -0.0275 C.ar   1 <0>       0.1700
   25 O25       4.8319    -0.3143    -1.1917 O.3    1 <0>      -0.4800
   26 O26       0.6936    -0.4721     1.1606 O.3    1 <0>      -0.3100
   27 H27       1.0039     1.9031     0.0027 H      1 <0>       0.0600
   28 H28      -0.5459     1.8868    -0.8726 H      1 <0>       0.0700
   29 H29      -0.5289     1.8773     0.9072 H      1 <0>       0.0700
   30 H30      -1.9690    -0.1654    -0.8522 H      1 <0>       0.0800
   31 H31      -1.4244    -1.6182     0.0201 H      1 <0>       0.0700
   32 H32      -1.9358    -0.1747     0.9274 H      1 <0>       0.0700
   33 H33       0.1038    -0.6824    -2.1404 H      1 <0>       0.1300
   34 H34       2.5101    -1.0011    -2.1570 H      1 <0>       0.1300
   35 H35       2.1633     0.0129     3.2957 H      1 <0>       0.1400
   36 H36       4.6024     0.3081     3.2922 H      1 <0>       0.1400
   37 H37       6.6784    -1.8397     0.9406 H      1 <0>       0.1800
   38 H38      10.9788    -0.5361     1.6335 H      1 <0>       0.1200
   39 H39      10.8130     3.6067     2.6798 H      1 <0>       0.1200
   40 H40       8.2273     4.4375     1.4107 H      1 <0>       0.3900
   41 H41       5.1384    -1.2069    -1.4028 H      1 <0>       0.3900
@<TRIPOS>BOND
   1    1    2 1
   2    1   27 1
   3    1   28 1
   4    1   29 1
   5    2   26 1
   6    2    3 1
   7    2    4 1
   8    3   30 1
   9    3   31 1
  10    3   32 1
  11    4    5 2
  12    4   33 1
  13    5    6 1
  14    5   34 1
  15    6   24 ar
  16    6    7 ar
  17    7    8 ar
  18    7   26 1
  19    8    9 ar
  20    8   35 1
  21    9   10 ar
  22    9   36 1
  23   10   11 1
  24   10   24 ar
  25   11   22 1
  26   11   12 2
  27   12   13 1
  28   12   37 1
  29   13   14 1
  30   14   21 ar
  31   14   15 ar
  32   15   16 ar
  33   15   38 1
  34   16   17 1
  35   16   18 ar
  36   18   19 ar
  37   18   39 1
  38   19   20 1
  39   19   21 ar
  40   20   40 1
  41   21   22 1
  42   22   23 2
  43   24   25 1
  44   25   41 1
