@<TRIPOS>MOLECULE
ZINC000045315610
68    74    1     0     0
SMALL
USER_CHARGES
@<TRIPOS>ATOM
1      C1     -0.0165    1.3642    0.0095 C.2      1 ZINC000045315610    0.0500
2      C2      1.2386    1.8395    0.0001 C.2      1 ZINC000045315610   -0.2000
3      C3      2.1346    0.6799   -0.0147 C.ar     1 ZINC000045315610   -0.1300
4      C4      3.5198    0.5276   -0.0294 C.ar     1 ZINC000045315610    0.0000
5      C5      4.0655   -0.7500   -0.0422 C.ar     1 ZINC000045315610   -0.0900
6      C6      5.5369   -0.9260   -0.0574 C.ar     1 ZINC000045315610    0.4600
7      N7      6.0342   -2.1591   -0.0748 N.ar     1 ZINC000045315610   -0.5700
8      C8      7.3440   -2.3699   -0.0890 C.ar     1 ZINC000045315610    0.4600
9      N9      7.8525   -3.6540   -0.1075 N.3      1 ZINC000045315610   -0.4700
10     C10     8.7430   -3.8514   -1.2606 C.3      1 ZINC000045315610    0.0200
11     C11     9.3295   -5.2646   -1.2094 C.3      1 ZINC000045315610    0.0600
12     O12     8.2632   -6.2171   -1.1795 O.3      1 ZINC000045315610   -0.3800
13     C13     7.3768   -6.0544   -0.0690 C.3      1 ZINC000045315610    0.0600
14     C14     6.7705   -4.6492   -0.1086 C.3      1 ZINC000045315610    0.0300
15     C15     8.2048   -1.2539   -0.0851 C.ar     1 ZINC000045315610   -0.3000
16     C16     9.6057   -1.0837   -0.0961 C.2      1 ZINC000045315610    0.1300
17     N17     9.8671    0.1925   -0.0850 N.2      1 ZINC000045315610   -0.2600
18     N18     8.6703    0.9196   -0.0665 N.pl3    1 ZINC000045315610   -0.3900
19     C19     8.5528    2.3798   -0.0501 C.3      1 ZINC000045315610    0.1700
20     C20     9.2505    2.9357    1.1947 C.3      1 ZINC000045315610   -0.1600
21     C21     9.1932    4.4645    1.1649 C.3      1 ZINC000045315610    0.0000
22     N22     9.8704    4.9597   -0.0395 N.4      1 ZINC000045315610   -0.3800
23     H23    10.8199    4.6187   -0.0546 H        1 ZINC000045315610    0.4200
24     C24     9.8795    6.4286   -0.0255 C.3      1 ZINC000045315610    0.0500
25     C25    10.4637    6.9398   -1.3171 C.ar     1 ZINC000045315610   -0.2200
26     C26    11.8275    7.1609   -1.4317 C.ar     1 ZINC000045315610   -0.0500
27     C27    12.3207    7.6312   -2.6394 C.ar     1 ZINC000045315610   -0.1600
28     C28    11.4427    7.8621   -3.6812 C.ar     1 ZINC000045315610    0.1400
29     N29    10.1507    7.6405   -3.5363 N.ar     1 ZINC000045315610   -0.4700
30     C30     9.6474    7.1886   -2.4045 C.ar     1 ZINC000045315610    0.1300
31     C31     9.1641    4.4892   -1.2371 C.3      1 ZINC000045315610   -0.0100
32     C32     9.2202    2.9613   -1.2997 C.3      1 ZINC000045315610   -0.1500
33     C33     7.6330    0.0342   -0.0664 C.ar     1 ZINC000045315610    0.3700
34     N34     6.3076    0.1499   -0.0585 N.ar     1 ZINC000045315610   -0.5600
35     C35     3.2277   -1.8709   -0.0402 C.ar     1 ZINC000045315610   -0.0500
36     C36     1.8708   -1.7262   -0.0258 C.ar     1 ZINC000045315610   -0.1400
37     C37     1.3017   -0.4556   -0.0128 C.ar     1 ZINC000045315610    0.1200
38     N38     0.0021   -0.0041    0.0020 N.pl3    1 ZINC000045315610   -0.5900
39     H39    -0.9092    1.9718    0.0254 H        1 ZINC000045315610    0.1700
40     H40     1.5324    2.8788    0.0026 H        1 ZINC000045315610    0.1500
41     H41     4.1634    1.3949   -0.0312 H        1 ZINC000045315610    0.1300
42     H42     8.1768   -3.7255   -2.1834 H        1 ZINC000045315610    0.0600
43     H43     9.5509   -3.1205   -1.2259 H        1 ZINC000045315610    0.1000
44     H44     9.9453   -5.4353   -2.0925 H        1 ZINC000045315610    0.1100
45     H45     9.9398   -5.3732   -0.3128 H        1 ZINC000045315610    0.0700
46     H46     6.5804   -6.7962   -0.1272 H        1 ZINC000045315610    0.1100
47     H47     7.9303   -6.1859    0.8608 H        1 ZINC000045315610    0.0600
48     H48     6.1385   -4.5006    0.7670 H        1 ZINC000045315610    0.1000
49     H49     6.1728   -4.5360   -1.0130 H        1 ZINC000045315610    0.0700
50     H50    10.3377   -1.8777   -0.1105 H        1 ZINC000045315610    0.2000
51     H51     7.4997    2.6607   -0.0351 H        1 ZINC000045315610    0.1200
52     H52     8.7456    2.5699    2.0888 H        1 ZINC000045315610    0.1200
53     H53    10.2908    2.6106    1.2047 H        1 ZINC000045315610    0.1000
54     H54     8.1525    4.7886    1.1552 H        1 ZINC000045315610    0.1400
55     H55     9.6889    4.8636    2.0499 H        1 ZINC000045315610    0.1400
56     H56     8.8595    6.7973    0.0829 H        1 ZINC000045315610    0.1400
57     H57    10.4837    6.7802    0.8109 H        1 ZINC000045315610    0.1400
58     H58    12.4900    6.9718   -0.6000 H        1 ZINC000045315610    0.1500
59     H59    13.3776    7.8150   -2.7641 H        1 ZINC000045315610    0.1500
60     H60    11.8188    8.2288   -4.6249 H        1 ZINC000045315610    0.1700
61     H61     8.5839    7.0190   -2.3233 H        1 ZINC000045315610    0.1600
62     H62     8.1240    4.8127   -1.1956 H        1 ZINC000045315610    0.1400
63     H63     9.6382    4.9065   -2.1255 H        1 ZINC000045315610    0.1400
64     H64    10.2599    2.6367   -1.3416 H        1 ZINC000045315610    0.1000
65     H65     8.6937    2.6139   -2.1886 H        1 ZINC000045315610    0.1200
66     H66     3.6594   -2.8608   -0.0506 H        1 ZINC000045315610    0.1400
67     H67     1.2363   -2.6002   -0.0248 H        1 ZINC000045315610    0.1300
68     H68    -0.7845   -0.5716    0.0066 H        1 ZINC000045315610    0.4200
@<TRIPOS>BOND
1     1     38    1
2     1     2     2
3     1     39    1
4     2     3     1
5     2     40    1
6     3     37    ar
7     3     4     ar
8     4     5     ar
9     4     41    1
10    5     6     1
11    5     35    ar
12    6     34    ar
13    6     7     ar
14    7     8     ar
15    8     9     1
16    8     15    ar
17    9     14    1
18    9     10    1
19    10    11    1
20    10    42    1
21    10    43    1
22    11    12    1
23    11    44    1
24    11    45    1
25    12    13    1
26    13    14    1
27    13    46    1
28    13    47    1
29    14    48    1
30    14    49    1
31    15    33    ar
32    15    16    1
33    16    17    2
34    16    50    1
35    17    18    1
36    18    19    1
37    18    33    1
38    19    32    1
39    19    20    1
40    19    51    1
41    20    21    1
42    20    52    1
43    20    53    1
44    21    22    1
45    21    54    1
46    21    55    1
47    22    23    1
48    22    24    1
49    22    31    1
50    24    25    1
51    24    56    1
52    24    57    1
53    25    30    ar
54    25    26    ar
55    26    27    ar
56    26    58    1
57    27    28    ar
58    27    59    1
59    28    29    ar
60    28    60    1
61    29    30    ar
62    30    61    1
63    31    32    1
64    31    62    1
65    31    63    1
66    32    64    1
67    32    65    1
68    33    34    ar
69    35    36    ar
70    35    66    1
71    36    37    ar
72    36    67    1
73    37    38    1
74    38    68    1
@<TRIPOS>SUBSTRUCTURE
1   ZINC000045315610 1     RESIDUE    1   A     ZIN   1
