@<TRIPOS>MOLECULE
ZINC000045284575
  33   35    0    0    0
SMALL
USER_CHARGES
NO_NAME
@<TRIPOS>ATOM
    1 C1       -0.0173     1.4248     0.0099 C.3    1 <0>       0.0200
    2 O2        0.0021    -0.0041     0.0020 O.3    1 <0>      -0.3000
    3 C3       -1.1998    -0.6372     0.0101 C.ar   1 <0>       0.1400
    4 C4       -1.2448    -2.0412     0.0088 C.ar   1 <0>       0.1400
    5 O5       -0.0855    -2.7499    -0.0006 O.3    1 <0>      -0.3000
    6 C6       -0.1960    -4.1746    -0.0015 C.3    1 <0>       0.0200
    7 C7       -2.4383    -2.7017     0.0172 C.ar   1 <0>      -0.1900
    8 C8       -3.6398    -1.9725     0.0269 C.ar   1 <0>      -0.0300
    9 C9       -4.8815    -2.6283     0.0363 C.ar   1 <0>      -0.0400
   10 C10      -4.9328    -4.1344     0.0354 C.3    1 <0>      -0.1200
   11 C11      -6.0418    -1.9105     0.0465 C.ar   1 <0>      -0.0700
   12 C12      -6.0191    -0.5152     0.0475 C.ar   1 <0>      -0.1200
   13 C13      -4.7990     0.1740     0.0379 C.ar   1 <0>      -0.1300
   14 C14      -5.1387     1.6085     0.0419 C.2    1 <0>       0.5800
   15 O15      -4.3420     2.5256     0.0354 O.2    1 <0>      -0.4600
   16 N16      -6.4781     1.7326     0.0531 N.am   1 <0>      -0.6800
   17 C17      -7.0712     0.5253     0.0571 C.2    1 <0>       0.5800
   18 O18      -8.2686     0.3232     0.0660 O.2    1 <0>      -0.4600
   19 C19      -3.5927    -0.5513     0.0278 C.ar   1 <0>       0.0200
   20 C20      -2.3497     0.0984     0.0250 C.ar   1 <0>      -0.1900
   21 H21       1.0053     1.8021     0.0021 H      1 <0>       0.1100
   22 H22      -0.5445     1.7859    -0.8732 H      1 <0>       0.0600
   23 H23      -0.5275     1.7763     0.9067 H      1 <0>       0.0600
   24 H24      -0.7299    -4.4981     0.8921 H      1 <0>       0.0600
   25 H25      -0.7430    -4.4960    -0.8879 H      1 <0>       0.0600
   26 H26       0.8004    -4.6163    -0.0094 H      1 <0>       0.1100
   27 H27      -2.4599    -3.7815     0.0161 H      1 <0>       0.1500
   28 H28      -4.9370    -4.4984     1.0629 H      1 <0>       0.0800
   29 H29      -5.8387    -4.4668    -0.4715 H      1 <0>       0.0800
   30 H30      -4.0598    -4.5275    -0.4857 H      1 <0>       0.0700
   31 H31      -6.9894    -2.4286     0.0536 H      1 <0>       0.1400
   32 H32      -6.9524     2.5787     0.0578 H      1 <0>       0.4300
   33 H33      -2.3024     1.1773     0.0304 H      1 <0>       0.1600
@<TRIPOS>BOND
   1    1    2 1
   2    1   21 1
   3    1   22 1
   4    1   23 1
   5    2    3 1
   6    3   20 ar
   7    3    4 ar
   8    4    5 1
   9    4    7 ar
  10    5    6 1
  11    6   24 1
  12    6   25 1
  13    6   26 1
  14    7    8 ar
  15    7   27 1
  16    8   19 ar
  17    8    9 ar
  18    9   10 1
  19    9   11 ar
  20   10   28 1
  21   10   29 1
  22   10   30 1
  23   11   12 ar
  24   11   31 1
  25   12   17 1
  26   12   13 ar
  27   13   14 1
  28   13   19 ar
  29   14   15 2
  30   14   16 am
  31   16   17 am
  32   16   32 1
  33   17   18 2
  34   19   20 ar
  35   20   33 1
