@<TRIPOS>MOLECULE
ZINC000013127269
  37   40    0    0    0
SMALL
USER_CHARGES
NO_NAME
@<TRIPOS>ATOM
    1 C1       -0.0173     1.4248     0.0099 C.3    1 <0>       0.0200
    2 O2        0.0021    -0.0041     0.0020 O.3    1 <0>      -0.3100
    3 C3        0.6261    -0.6186     1.0419 C.ar   1 <0>       0.1000
    4 C4        1.2034     0.1454     2.0534 C.ar   1 <0>      -0.1400
    5 C5        1.8396    -0.4615     3.1133 C.ar   1 <0>      -0.1300
    6 C6        1.9111    -1.8498     3.1829 C.ar   1 <0>       0.1600
    7 N7        2.5492    -2.4577     4.2463 N.am   1 <0>      -0.6300
    8 C8        2.6263    -3.7995     4.3262 C.2    1 <0>       0.5500
    9 O9        3.1927    -4.3199     5.2709 O.2    1 <0>      -0.4900
   10 C10       2.0307    -4.6357     3.2808 C.2    1 <0>      -0.1100
   11 C11       2.1142    -6.1124     3.3674 C.2    1 <0>       0.2300
   12 N12       1.6315    -6.9690     2.5022 N.2    1 <0>      -0.3800
   13 O13       1.8643    -8.1043     2.8593 O.3    1 <0>       0.0900
   14 C14       2.5375    -8.0901     4.0202 C.2    1 <0>       0.2300
   15 C15       3.0055    -9.2683     4.7810 C.ar   1 <0>      -0.0300
   16 C16       3.6932    -9.0981     5.9835 C.ar   1 <0>      -0.0600
   17 C17       4.1268   -10.2017     6.6888 C.ar   1 <0>      -0.1200
   18 C18       3.8812   -11.4750     6.2064 C.ar   1 <0>      -0.0900
   19 C19       3.2001   -11.6506     5.0151 C.ar   1 <0>      -0.1200
   20 C20       2.7564   -10.5555     4.3027 C.ar   1 <0>      -0.0800
   21 N21       2.7071    -6.8238     4.3500 N.2    1 <0>      -0.4400
   22 C22       1.3968    -4.0419     2.2251 C.2    1 <0>       0.0200
   23 C23       1.3291    -2.6271     2.1640 C.ar   1 <0>      -0.1000
   24 C24       0.6796    -1.9959     1.0934 C.ar   1 <0>      -0.0800
   25 H25       1.0053     1.8021     0.0021 H      1 <0>       0.0600
   26 H26      -0.5445     1.7859    -0.8732 H      1 <0>       0.1000
   27 H27      -0.5275     1.7763     0.9067 H      1 <0>       0.0600
   28 H28       1.1521     1.2231     2.0057 H      1 <0>       0.1400
   29 H29       2.2840     0.1409     3.8918 H      1 <0>       0.1400
   30 H30       2.9464    -1.9120     4.9430 H      1 <0>       0.4200
   31 H31       3.8858    -8.1047     6.3609 H      1 <0>       0.1400
   32 H32       4.6594   -10.0714     7.6192 H      1 <0>       0.1300
   33 H33       4.2231   -12.3356     6.7622 H      1 <0>       0.1300
   34 H34       3.0116   -12.6472     4.6440 H      1 <0>       0.1300
   35 H35       2.2248   -10.6939     3.3728 H      1 <0>       0.1400
   36 H36       0.9528    -4.6439     1.4460 H      1 <0>       0.1500
   37 H37       0.2278    -2.5858     0.3096 H      1 <0>       0.1500
@<TRIPOS>BOND
   1    1    2 1
   2    1   25 1
   3    1   26 1
   4    1   27 1
   5    2    3 1
   6    3   24 ar
   7    3    4 ar
   8    4    5 ar
   9    4   28 1
  10    5    6 ar
  11    5   29 1
  12    6   23 ar
  13    6    7 1
  14    7    8 am
  15    7   30 1
  16    8    9 2
  17    8   10 1
  18   10   11 1
  19   10   22 2
  20   11   21 1
  21   11   12 2
  22   12   13 1
  23   13   14 1
  24   14   15 1
  25   14   21 2
  26   15   20 ar
  27   15   16 ar
  28   16   17 ar
  29   16   31 1
  30   17   18 ar
  31   17   32 1
  32   18   19 ar
  33   18   33 1
  34   19   20 ar
  35   19   34 1
  36   20   35 1
  37   22   23 1
  38   22   36 1
  39   23   24 ar
  40   24   37 1
