@<TRIPOS>MOLECULE
ZINC000022067501
69    73    1     0     0
SMALL
USER_CHARGES
@<TRIPOS>ATOM
1      C1     -0.0373    1.3344   -0.0351 C.3      1 ZINC000022067501    0.0200
2      O2      0.0018   -0.0940   -0.0463 O.3      1 ZINC000022067501   -0.3000
3      C3      0.6282   -0.6862   -1.0980 C.ar     1 ZINC000022067501    0.1100
4      C4      0.6938   -2.0847   -1.1676 C.ar     1 ZINC000022067501    0.1700
5      O5      0.1314   -2.8336   -0.1835 O.3      1 ZINC000022067501   -0.2900
6      C6      0.2314   -4.2534   -0.3112 C.3      1 ZINC000022067501    0.0600
7      C7     -0.4546   -4.9223    0.8816 C.3      1 ZINC000022067501   -0.1200
8      C8     -0.3475   -6.4424    0.7449 C.3      1 ZINC000022067501    0.0600
9      N9     -1.0062   -7.0846    1.8902 N.3      1 ZINC000022067501   -0.5400
10     C10    -0.6055   -6.4480    3.1533 C.3      1 ZINC000022067501    0.0100
11     C11    -1.3586   -7.1070    4.3120 C.3      1 ZINC000022067501    0.0600
12     O12    -1.0954   -8.5128    4.3068 O.3      1 ZINC000022067501   -0.3900
13     C13    -1.4740   -9.1649    3.0916 C.3      1 ZINC000022067501    0.0600
14     C14    -0.7221   -8.5267    1.9206 C.3      1 ZINC000022067501    0.0200
15     C15     1.3220   -2.7078   -2.2232 C.ar     1 ZINC000022067501   -0.1800
16     C16     1.9008   -1.9334   -3.2360 C.ar     1 ZINC000022067501    0.2000
17     N17     2.5239   -2.4917   -4.2857 N.ar     1 ZINC000022067501   -0.5500
18     C18     3.0565   -1.7402   -5.2197 C.ar     1 ZINC000022067501    0.3400
19     N19     3.0159   -0.4176   -5.1895 N.ar     1 ZINC000022067501   -0.5800
20     C20     2.4248    0.2355   -4.1974 C.ar     1 ZINC000022067501    0.4700
21     N21     2.3896    1.6151   -4.1791 N.pl3    1 ZINC000022067501   -0.6400
22     C22     3.0599    2.3453   -5.1670 C.ar     1 ZINC000022067501    0.1300
23     C23     3.6640    3.5546   -4.8473 C.ar     1 ZINC000022067501   -0.1300
24     C24     4.3250    4.2748   -5.8218 C.ar     1 ZINC000022067501   -0.1200
25     C25     4.3858    3.7906   -7.1221 C.ar     1 ZINC000022067501    0.1300
26     N26     5.0564    4.5213   -8.1106 N.am     1 ZINC000022067501   -0.6700
27     C27     4.5930    4.5258   -9.3762 C.2      1 ZINC000022067501    0.5600
28     O28     3.6396    3.8341   -9.6769 O.2      1 ZINC000022067501   -0.5100
29     C29     5.2440    5.3719  -10.3986 C.ar     1 ZINC000022067501   -0.1400
30     C30     6.3424    6.1630  -10.0580 C.ar     1 ZINC000022067501   -0.0900
31     C31     6.9453    6.9504  -11.0170 C.ar     1 ZINC000022067501   -0.1300
32     C32     6.4635    6.9571  -12.3140 C.ar     1 ZINC000022067501   -0.0900
33     C33     5.3748    6.1756  -12.6582 C.ar     1 ZINC000022067501   -0.1300
34     C34     4.7665    5.3789  -11.7103 C.ar     1 ZINC000022067501   -0.0600
35     C35     3.7818    2.5815   -7.4419 C.ar     1 ZINC000022067501   -0.1000
36     C36     3.1260    1.8582   -6.4662 C.ar     1 ZINC000022067501   -0.0900
37     C37     1.8309   -0.5203   -3.1585 C.ar     1 ZINC000022067501   -0.1800
38     C38     1.1817    0.0882   -2.0778 C.ar     1 ZINC000022067501   -0.1500
39     H39     0.9801    1.7256   -0.0281 H        1 ZINC000022067501    0.0600
40     H40    -0.5575    1.6906   -0.9243 H        1 ZINC000022067501    0.0600
41     H41    -0.5642    1.6765    0.8556 H        1 ZINC000022067501    0.1100
42     H42    -0.2542   -4.5702   -1.2342 H        1 ZINC000022067501    0.0700
43     H43     1.2820   -4.5429   -0.3354 H        1 ZINC000022067501    0.0700
44     H44     0.0310   -4.6054    1.8046 H        1 ZINC000022067501    0.0800
45     H45    -1.5051   -4.6327    0.9058 H        1 ZINC000022067501    0.0900
46     H46    -0.8331   -6.7593   -0.1781 H        1 ZINC000022067501    0.0800
47     H47     0.7031   -6.7319    0.7207 H        1 ZINC000022067501    0.0400
48     H48     0.4675   -6.5722    3.2992 H        1 ZINC000022067501    0.0400
49     H49    -0.8483   -5.3860    3.1187 H        1 ZINC000022067501    0.0900
50     H50    -1.0226   -6.6773    5.2557 H        1 ZINC000022067501    0.1000
51     H51    -2.4288   -6.9367    4.1943 H        1 ZINC000022067501    0.0600
52     H52    -1.2215  -10.2235    3.1527 H        1 ZINC000022067501    0.1000
53     H53    -2.5475   -9.0544    2.9384 H        1 ZINC000022067501    0.0600
54     H54    -1.0500   -8.9821    0.9861 H        1 ZINC000022067501    0.0900
55     H55     0.3491   -8.6841    2.0468 H        1 ZINC000022067501    0.0400
56     H56     1.3682   -3.7858   -2.2692 H        1 ZINC000022067501    0.1500
57     H57     3.5506   -2.2222   -6.0503 H        1 ZINC000022067501    0.2000
58     H58     1.9004    2.0785   -3.4814 H        1 ZINC000022067501    0.4200
59     H59     3.6161    3.9315   -3.8363 H        1 ZINC000022067501    0.1300
60     H60     4.7947    5.2151   -5.5732 H        1 ZINC000022067501    0.1300
61     H61     5.8544    5.0242   -7.8845 H        1 ZINC000022067501    0.4100
62     H62     6.7192    6.1590   -9.0459 H        1 ZINC000022067501    0.1300
63     H63     7.7950    7.5633  -10.7547 H        1 ZINC000022067501    0.1300
64     H64     6.9392    7.5753  -13.0610 H        1 ZINC000022067501    0.1300
65     H65     5.0035    6.1856  -13.6723 H        1 ZINC000022067501    0.1300
66     H66     3.9170    4.7691  -11.9803 H        1 ZINC000022067501    0.1400
67     H67     3.8288    2.2053   -8.4532 H        1 ZINC000022067501    0.1400
68     H68     2.6564    0.9179   -6.7148 H        1 ZINC000022067501    0.1500
69     H69     1.1217    1.1649   -2.0172 H        1 ZINC000022067501    0.1400
@<TRIPOS>BOND
1     1     2     1
2     1     39    1
3     1     40    1
4     1     41    1
5     2     3     1
6     3     38    ar
7     3     4     ar
8     4     5     1
9     4     15    ar
10    5     6     1
11    6     7     1
12    6     42    1
13    6     43    1
14    7     8     1
15    7     44    1
16    7     45    1
17    8     9     1
18    8     46    1
19    8     47    1
20    9     14    1
21    9     10    1
22    10    11    1
23    10    48    1
24    10    49    1
25    11    12    1
26    11    50    1
27    11    51    1
28    12    13    1
29    13    14    1
30    13    52    1
31    13    53    1
32    14    54    1
33    14    55    1
34    15    16    ar
35    15    56    1
36    16    37    ar
37    16    17    ar
38    17    18    ar
39    18    19    ar
40    18    57    1
41    19    20    ar
42    20    21    1
43    20    37    ar
44    21    22    1
45    21    58    1
46    22    36    ar
47    22    23    ar
48    23    24    ar
49    23    59    1
50    24    25    ar
51    24    60    1
52    25    26    1
53    25    35    ar
54    26    27    am
55    26    61    1
56    27    28    2
57    27    29    1
58    29    34    ar
59    29    30    ar
60    30    31    ar
61    30    62    1
62    31    32    ar
63    31    63    1
64    32    33    ar
65    32    64    1
66    33    34    ar
67    33    65    1
68    34    66    1
69    35    36    ar
70    35    67    1
71    36    68    1
72    37    38    ar
73    38    69    1
@<TRIPOS>SUBSTRUCTURE
1   ZINC000022067501 1     RESIDUE    1   A     ZIN   1
