@<TRIPOS>MOLECULE
ZINC000004716509
  43   45    0    0    0
SMALL
USER_CHARGES
NO_NAME
@<TRIPOS>ATOM
    1 C1       -1.5464     0.7880    -0.5883 C.3    1 <0>       0.0200
    2 O2       -0.4907    -0.1031    -0.2230 O.3    1 <0>      -0.3100
    3 C3        0.2047    -0.6828    -1.2351 C.ar   1 <0>       0.1500
    4 C4       -0.1214    -0.3931    -2.5544 C.ar   1 <0>      -0.2200
    5 C5        0.5812    -0.9788    -3.5843 C.ar   1 <0>      -0.0400
    6 C6        1.6237    -1.8658    -3.3006 C.ar   1 <0>      -0.1100
    7 C7        2.3791    -2.4949    -4.3996 C.2    1 <0>       0.1800
    8 C8        2.6029    -3.8383    -4.3569 C.2    1 <0>      -0.0800
    9 O9        2.1343    -4.5790    -3.3158 O.3    1 <0>      -0.3000
   10 C10       1.1274    -5.5490    -3.6112 C.3    1 <0>       0.0300
   11 C11       3.3282    -4.4588    -5.4069 C.2    1 <0>       0.4100
   12 O12       3.5476    -5.6596    -5.4028 O.2    1 <0>      -0.4400
   13 C13       3.8051    -3.5982    -6.5012 C.ar   1 <0>      -0.2900
   14 C14       4.5285    -4.1262    -7.5784 C.ar   1 <0>       0.2600
   15 O15       4.8044    -5.4539    -7.6313 O.3    1 <0>      -0.2800
   16 C16       5.5465    -5.9178    -8.7610 C.3    1 <0>       0.0200
   17 C17       4.9588    -3.2847    -8.5874 C.ar   1 <0>      -0.3300
   18 C18       4.6751    -1.9245    -8.5314 C.ar   1 <0>       0.2300
   19 O19       5.1028    -1.1072    -9.5274 O.3    1 <0>      -0.3000
   20 C20       5.8348    -1.7132   -10.5946 C.3    1 <0>       0.0200
   21 C21       3.9593    -1.3950    -7.4688 C.ar   1 <0>      -0.2200
   22 C22       3.5192    -2.2225    -6.4473 C.ar   1 <0>       0.2200
   23 O23       2.8166    -1.7229    -5.4090 O.3    1 <0>      -0.2000
   24 C24       1.9483    -2.1543    -1.9718 C.ar   1 <0>      -0.0200
   25 C25       1.2439    -1.5595    -0.9483 C.ar   1 <0>      -0.1600
   26 H26      -1.1397     1.6124    -1.1741 H      1 <0>       0.0600
   27 H27      -2.2862     0.2508    -1.1819 H      1 <0>       0.0600
   28 H28      -2.0186     1.1804     0.3123 H      1 <0>       0.1000
   29 H29      -0.9273     0.2920    -2.7727 H      1 <0>       0.1400
   30 H30       0.3268    -0.7534    -4.6094 H      1 <0>       0.1300
   31 H31       0.7716    -5.9974    -2.6836 H      1 <0>       0.1000
   32 H32       0.2957    -5.0650    -4.1232 H      1 <0>       0.0400
   33 H33       1.5468    -6.3245    -4.2521 H      1 <0>       0.0600
   34 H34       5.6977    -6.9942    -8.6792 H      1 <0>       0.1100
   35 H35       4.9939    -5.6969    -9.6742 H      1 <0>       0.0600
   36 H36       6.5137    -5.4162    -8.7912 H      1 <0>       0.0600
   37 H37       5.5170    -3.6846    -9.4210 H      1 <0>       0.1500
   38 H38       6.1161    -0.9508   -11.3211 H      1 <0>       0.1100
   39 H39       6.7332    -2.1851   -10.1969 H      1 <0>       0.0600
   40 H40       5.2135    -2.4658   -11.0799 H      1 <0>       0.0600
   41 H41       3.7448    -0.3370    -7.4366 H      1 <0>       0.1600
   42 H42       2.7530    -2.8389    -1.7480 H      1 <0>       0.1400
   43 H43       1.4942    -1.7815     0.0786 H      1 <0>       0.1400
@<TRIPOS>BOND
   1    1    2 1
   2    1   26 1
   3    1   27 1
   4    1   28 1
   5    2    3 1
   6    3   25 ar
   7    3    4 ar
   8    4    5 ar
   9    4   29 1
  10    5    6 ar
  11    5   30 1
  12    6    7 1
  13    6   24 ar
  14    7   23 1
  15    7    8 2
  16    8    9 1
  17    8   11 1
  18    9   10 1
  19   10   31 1
  20   10   32 1
  21   10   33 1
  22   11   12 2
  23   11   13 1
  24   13   22 ar
  25   13   14 ar
  26   14   15 1
  27   14   17 ar
  28   15   16 1
  29   16   34 1
  30   16   35 1
  31   16   36 1
  32   17   18 ar
  33   17   37 1
  34   18   19 1
  35   18   21 ar
  36   19   20 1
  37   20   38 1
  38   20   39 1
  39   20   40 1
  40   21   22 ar
  41   21   41 1
  42   22   23 1
  43   24   25 ar
  44   24   42 1
  45   25   43 1
