@<TRIPOS>MOLECULE
ZINC000044460341
51    53    1     0     0
SMALL
USER_CHARGES
@<TRIPOS>ATOM
1      C1     -0.0176    1.4478    0.0100 C.3      1 ZINC000044460341    0.0600
2      O2      0.0021   -0.0041    0.0020 O.3      1 ZINC000044460341   -0.3600
3      C3      0.6002   -0.6015   -1.0459 C.2      1 ZINC000044460341    0.6600
4      O4      1.0922    0.0719   -1.9296 O.2      1 ZINC000044460341   -0.5900
5      N5      0.6531   -1.9465   -1.1147 N.am     1 ZINC000044460341   -0.5600
6      C6      0.0598   -2.7584   -0.0493 C.3      1 ZINC000044460341    0.0400
7      C7     -1.3807   -3.0497   -0.3827 C.2      1 ZINC000044460341    0.4800
8      O8     -1.8667   -2.6190   -1.4146 O.co2    1 ZINC000044460341   -0.6800
9      O9     -2.0600   -3.7160    0.3795 O.co2    1 ZINC000044460341   -0.7000
10     C10     1.3039   -2.5965   -2.2549 C.3      1 ZINC000044460341    0.1800
11     C11     2.7641   -2.8065   -1.9472 C.ar     1 ZINC000044460341   -0.0600
12     C12     3.6854   -1.8272   -2.2685 C.ar     1 ZINC000044460341   -0.1300
13     C13     5.0261   -2.0168   -1.9875 C.ar     1 ZINC000044460341   -0.0900
14     C14     5.4479   -3.1858   -1.3846 C.ar     1 ZINC000044460341   -0.2100
15     C15     4.5252   -4.1702   -1.0611 C.ar     1 ZINC000044460341    0.1200
16     O16     4.9377   -5.3211   -0.4676 O.3      1 ZINC000044460341   -0.3100
17     C17     6.3365   -5.4507   -0.2055 C.3      1 ZINC000044460341    0.1500
18     C18     6.6035   -6.7809    0.4504 C.2      1 ZINC000044460341   -0.0200
19     C19     6.5975   -7.0277    1.7728 C.2      1 ZINC000044460341    0.0000
20     C20     6.3229   -6.0284    2.8670 C.3      1 ZINC000044460341   -0.0800
21     O21     6.8821   -8.3348    1.9374 O.3      1 ZINC000044460341   -0.1900
22     C22     7.0586   -8.8713    0.7175 C.2      1 ZINC000044460341    0.2200
23     C23     7.3869  -10.2846    0.4354 C.ar     1 ZINC000044460341   -0.0100
24     C24     7.5500  -10.7166   -0.8818 C.ar     1 ZINC000044460341   -0.0600
25     C25     7.8568  -12.0365   -1.1388 C.ar     1 ZINC000044460341   -0.1100
26     C26     8.0026  -12.9326   -0.0931 C.ar     1 ZINC000044460341   -0.0200
27     Cl27    8.3882  -14.5925   -0.4245 Cl       1 ZINC000044460341   -0.0600
28     C28     7.8424  -12.5099    1.2158 C.ar     1 ZINC000044460341   -0.1100
29     C29     7.5407  -11.1913    1.4855 C.ar     1 ZINC000044460341   -0.0800
30     N30     6.8839   -7.9311   -0.1811 N.2      1 ZINC000044460341   -0.4500
31     C31     3.1803   -3.9752   -1.3390 C.ar     1 ZINC000044460341   -0.1300
32     H32     1.0050    1.8251    0.0023 H        1 ZINC000044460341    0.0600
33     H33    -0.5448    1.8089   -0.8731 H        1 ZINC000044460341    0.0600
34     H34    -0.5278    1.7993    0.9068 H        1 ZINC000044460341    0.1000
35     H35     0.6085   -3.6958    0.0415 H        1 ZINC000044460341    0.0800
36     H36     0.1117   -2.2143    0.8938 H        1 ZINC000044460341    0.0800
37     H37     0.8300   -3.5600   -2.4429 H        1 ZINC000044460341    0.0900
38     H38     1.2058   -1.9649   -3.1378 H        1 ZINC000044460341    0.1000
39     H39     3.3576   -0.9126   -2.7402 H        1 ZINC000044460341    0.1300
40     H40     5.7440   -1.2504   -2.2398 H        1 ZINC000044460341    0.1200
41     H41     6.4951   -3.3336   -1.1657 H        1 ZINC000044460341    0.1200
42     H42     6.8889   -5.3904   -1.1431 H        1 ZINC000044460341    0.0800
43     H43     6.6577   -4.6476    0.4578 H        1 ZINC000044460341    0.0800
44     H44     5.2549   -6.0119    3.0843 H        1 ZINC000044460341    0.1000
45     H45     6.8720   -6.3125    3.7647 H        1 ZINC000044460341    0.0800
46     H46     6.6432   -5.0381    2.5433 H        1 ZINC000044460341    0.1000
47     H47     7.4359  -10.0187   -1.6982 H        1 ZINC000044460341    0.1500
48     H48     7.9833  -12.3719   -2.1576 H        1 ZINC000044460341    0.1400
49     H49     7.9573  -13.2133    2.0272 H        1 ZINC000044460341    0.1400
50     H50     7.4160  -10.8627    2.5067 H        1 ZINC000044460341    0.1400
51     H51     2.4601   -4.7400   -1.0881 H        1 ZINC000044460341    0.1300
@<TRIPOS>BOND
1     1     2     1
2     1     32    1
3     1     33    1
4     1     34    1
5     2     3     1
6     3     4     2
7     3     5     am
8     5     6     1
9     5     10    1
10    6     7     1
11    6     35    1
12    6     36    1
13    7     8     ar
14    7     9     ar
15    10    11    1
16    10    37    1
17    10    38    1
18    11    31    ar
19    11    12    ar
20    12    13    ar
21    12    39    1
22    13    14    ar
23    13    40    1
24    14    15    ar
25    14    41    1
26    15    16    1
27    15    31    ar
28    16    17    1
29    17    18    1
30    17    42    1
31    17    43    1
32    18    30    1
33    18    19    2
34    19    20    1
35    19    21    1
36    20    44    1
37    20    45    1
38    20    46    1
39    21    22    1
40    22    23    1
41    22    30    2
42    23    29    ar
43    23    24    ar
44    24    25    ar
45    24    47    1
46    25    26    ar
47    25    48    1
48    26    27    1
49    26    28    ar
50    28    29    ar
51    28    49    1
52    29    50    1
53    31    51    1
@<TRIPOS>SUBSTRUCTURE
1   ZINC000044460341 1     RESIDUE    1   A     ZIN   1
