@<TRIPOS>MOLECULE
ZINC000146560539
45    49    1     0     0
SMALL
USER_CHARGES
@<TRIPOS>ATOM
1      C1      0.1292    1.8426    0.3204 C.3      1 ZINC000146560539   -0.1500
2      C2     -0.0081    0.3465    0.0309 C.3      1 ZINC000146560539    0.1700
3      H3      0.5879    0.0897   -0.8448 H        1 ZINC000146560539    0.1600
4      N4     -1.4145    0.0255   -0.2243 N.pl3    1 ZINC000146560539   -0.7100
5      C5     -1.9591    0.2475   -1.4789 C.ar     1 ZINC000146560539    0.4900
6      C6     -3.2988   -0.0472   -1.7376 C.ar     1 ZINC000146560539   -0.1300
7      N7     -4.3490   -0.5576   -1.0041 N.pl3    1 ZINC000146560539   -0.5800
8      C8     -5.4213   -0.6106   -1.8260 C.2      1 ZINC000146560539    0.3000
9      N9     -5.1009   -0.1688   -3.0102 N.2      1 ZINC000146560539   -0.4900
10     C10    -3.8049    0.1958   -3.0253 C.ar     1 ZINC000146560539    0.3200
11     N11    -2.9841    0.6999   -3.9521 N.ar     1 ZINC000146560539   -0.5200
12     C12    -1.7289    0.9622   -3.6620 C.ar     1 ZINC000146560539    0.3500
13     N13    -1.2182    0.7515   -2.4626 N.ar     1 ZINC000146560539   -0.5600
14     C14     0.4794   -0.4419    1.2192 C.ar     1 ZINC000146560539   -0.1100
15     C15     1.8547   -0.6278    1.4232 C.ar     1 ZINC000146560539    0.2300
16     C16     2.8164   -0.0408    0.4583 C.ar     1 ZINC000146560539    0.1500
17     C17     4.1005    0.2947    0.8806 C.ar     1 ZINC000146560539   -0.1300
18     C18     4.9875    0.8415   -0.0317 C.ar     1 ZINC000146560539   -0.0800
19     C19     4.5597    1.0344   -1.3369 C.ar     1 ZINC000146560539   -0.1600
20     C20     3.2694    0.6780   -1.6875 C.ar     1 ZINC000146560539    0.1100
21     N21     2.4479    0.1552   -0.8012 N.ar     1 ZINC000146560539   -0.4600
22     N22     2.3125   -1.3125    2.4538 N.ar     1 ZINC000146560539   -0.4500
23     C23     1.4832   -1.8580    3.3467 C.ar     1 ZINC000146560539    0.1500
24     C24     1.9781   -2.5861    4.4432 C.ar     1 ZINC000146560539   -0.1300
25     C25     1.1090   -3.1322    5.3398 C.ar     1 ZINC000146560539    0.1200
26     F26     1.5898   -3.8303    6.3918 F        1 ZINC000146560539   -0.1300
27     C27    -0.2705   -2.9807    5.1881 C.ar     1 ZINC000146560539   -0.1400
28     C28    -0.7849   -2.2829    4.1388 C.ar     1 ZINC000146560539   -0.0700
29     C29     0.0812   -1.7062    3.1958 C.ar     1 ZINC000146560539   -0.1000
30     C30    -0.4155   -0.9717    2.1019 C.ar     1 ZINC000146560539   -0.0600
31     H31     1.1756    2.0813    0.5104 H        1 ZINC000146560539    0.0600
32     H32    -0.2234    2.4128   -0.5390 H        1 ZINC000146560539    0.0700
33     H33    -0.4668    2.0994    1.1962 H        1 ZINC000146560539    0.0500
34     H34    -1.9645   -0.3424    0.4850 H        1 ZINC000146560539    0.4000
35     H35    -4.3232   -0.8281   -0.0729 H        1 ZINC000146560539    0.4200
36     H36    -6.4007   -0.9671   -1.5428 H        1 ZINC000146560539    0.2300
37     H37    -1.0918    1.3690   -4.4334 H        1 ZINC000146560539    0.2000
38     H38     4.4003    0.1311    1.9052 H        1 ZINC000146560539    0.1400
39     H39     5.9897    1.1119    0.2665 H        1 ZINC000146560539    0.1400
40     H40     5.2270    1.4590   -2.0723 H        1 ZINC000146560539    0.1400
41     H41     2.9329    0.8269   -2.7029 H        1 ZINC000146560539    0.1700
42     H42     3.0426   -2.7124    4.5741 H        1 ZINC000146560539    0.1500
43     H43    -0.9382   -3.4232    5.9125 H        1 ZINC000146560539    0.1500
44     H44    -1.8540   -2.1727    4.0323 H        1 ZINC000146560539    0.1400
45     H45    -1.4777   -0.8351    1.9629 H        1 ZINC000146560539    0.1400
@<TRIPOS>BOND
1     1     2     1
2     1     31    1
3     1     32    1
4     1     33    1
5     2     3     1
6     2     4     1
7     2     14    1
8     4     5     1
9     4     34    1
10    5     13    ar
11    5     6     ar
12    6     10    ar
13    6     7     1
14    7     8     1
15    7     35    1
16    8     9     2
17    8     36    1
18    9     10    1
19    10    11    ar
20    11    12    ar
21    12    13    ar
22    12    37    1
23    14    30    ar
24    14    15    ar
25    15    16    1
26    15    22    ar
27    16    21    ar
28    16    17    ar
29    17    18    ar
30    17    38    1
31    18    19    ar
32    18    39    1
33    19    20    ar
34    19    40    1
35    20    21    ar
36    20    41    1
37    22    23    ar
38    23    29    ar
39    23    24    ar
40    24    25    ar
41    24    42    1
42    25    26    1
43    25    27    ar
44    27    28    ar
45    27    43    1
46    28    29    ar
47    28    44    1
48    29    30    ar
49    30    45    1
@<TRIPOS>SUBSTRUCTURE
1   ZINC000146560539 1     RESIDUE    1   A     ZIN   1
