@<TRIPOS>MOLECULE
ZINC000002012718
26    26    1     0     0
SMALL
USER_CHARGES
@<TRIPOS>ATOM
1      N1     -0.0116    1.0048    0.0076 N.4      1 ZINC000002012718   -0.6200
2      H2      0.0021   -0.0041    0.0020 H        1 ZINC000002012718    0.4400
3      H3      0.9350    1.3541    0.0004 H        1 ZINC000002012718    0.4000
4      H4     -0.4996    1.3391   -0.8099 H        1 ZINC000002012718    0.4300
5      C5     -0.6992    1.4786    1.2162 C.3      1 ZINC000002012718   -0.0400
6      H6     -0.1720    1.1175    2.0992 H        1 ZINC000002012718    0.1400
7      C7     -0.7199    3.0084    1.2246 C.3      1 ZINC000002012718   -0.0800
8      C8      0.6896    3.5293    1.3378 C.ar     1 ZINC000002012718   -0.1200
9      C9      1.2085    3.8527    2.5775 C.ar     1 ZINC000002012718   -0.1000
10     C10     2.5039    4.3321    2.6838 C.ar     1 ZINC000002012718    0.0900
11     O11     3.0139    4.6502    3.9046 O.3      1 ZINC000002012718   -0.4800
12     C12     3.2832    4.4877    1.5418 C.ar     1 ZINC000002012718    0.1000
13     O13     4.5551    4.9578    1.6443 O.3      1 ZINC000002012718   -0.4800
14     C14     2.7618    4.1627    0.3001 C.ar     1 ZINC000002012718   -0.1400
15     C15     1.4665    3.6782    0.1985 C.ar     1 ZINC000002012718    0.0800
16     O16     0.9542    3.3586   -1.0199 O.3      1 ZINC000002012718   -0.4800
17     C17    -2.1130    0.9569    1.2269 C.2      1 ZINC000002012718    0.4900
18     O18    -2.8004    1.0794    2.2264 O.co2    1 ZINC000002012718   -0.6300
19     O19    -2.5694    0.4125    0.2361 O.co2    1 ZINC000002012718   -0.6700
20     H20    -1.1680    3.3708    0.2994 H        1 ZINC000002012718    0.1000
21     H21    -1.3062    3.3592    2.0739 H        1 ZINC000002012718    0.1200
22     H22     0.6034    3.7318    3.4639 H        1 ZINC000002012718    0.1500
23     H23     3.4598    3.9157    4.3481 H        1 ZINC000002012718    0.3900
24     H24     5.2212    4.2671    1.7648 H        1 ZINC000002012718    0.3900
25     H25     3.3651    4.2828   -0.5877 H        1 ZINC000002012718    0.1500
26     H26     1.1077    2.4407   -1.2826 H        1 ZINC000002012718    0.3700
@<TRIPOS>BOND
1     1     2     1
2     1     3     1
3     1     4     1
4     1     5     1
5     5     6     1
6     5     7     1
7     5     17    1
8     7     8     1
9     7     20    1
10    7     21    1
11    8     15    ar
12    8     9     ar
13    9     10    ar
14    9     22    1
15    10    11    1
16    10    12    ar
17    11    23    1
18    12    13    1
19    12    14    ar
20    13    24    1
21    14    15    ar
22    14    25    1
23    15    16    1
24    16    26    1
25    17    18    ar
26    17    19    ar
@<TRIPOS>SUBSTRUCTURE
1   ZINC000002012718 1     RESIDUE    1   A     ZIN   1
