@<TRIPOS>MOLECULE
ZINC000028822453
43    46    1     0     0
SMALL
USER_CHARGES
@<TRIPOS>ATOM
1      C1     -0.3384    1.4962    0.0465 C.3      1 ZINC000028822453   -0.1100
2      C2     -0.2989   -0.0103    0.0361 C.ar     1 ZINC000028822453   -0.1200
3      C3     -0.5439   -0.6982   -1.1425 C.ar     1 ZINC000028822453   -0.0500
4      C4     -0.5121   -2.0821   -1.1703 C.ar     1 ZINC000028822453    0.1400
5      N5     -0.7609   -2.7653   -2.3652 N.am     1 ZINC000028822453   -0.9400
6      C6      0.2240   -3.0744   -3.4127 C.3      1 ZINC000028822453    0.0800
7      C7     -0.1757   -4.3664   -4.1508 C.3      1 ZINC000028822453   -0.1300
8      C8     -1.6998   -4.2008   -4.4173 C.3      1 ZINC000028822453   -0.6000
9      S9     -2.2295   -3.3865   -2.8615 S.o2     1 ZINC000028822453    2.5600
10     O10    -2.5865   -4.3445   -1.8745 O.2      1 ZINC000028822453   -0.9300
11     O11    -3.0368   -2.2474   -3.1255 O.2      1 ZINC000028822453   -0.9500
12     C12    -0.2305   -2.7937   -0.0025 C.ar     1 ZINC000028822453    0.1500
13     O13    -0.1945   -4.1427   -0.0094 O.3      1 ZINC000028822453   -0.1800
14     C14     0.0732   -4.8608    1.0937 C.2      1 ZINC000028822453    0.2100
15     C15     0.0927   -6.3319    0.9982 C.ar     1 ZINC000028822453   -0.2100
16     C16    -0.5900   -7.1047    1.9418 C.ar     1 ZINC000028822453    0.0000
17     C17    -0.5692   -8.4791    1.8490 C.ar     1 ZINC000028822453   -0.2600
18     C18     0.1288   -9.0976    0.8197 C.ar     1 ZINC000028822453    0.3100
19     O19     0.1461  -10.4527    0.7320 O.3      1 ZINC000028822453   -0.6800
20     C20     0.8097   -8.3333   -0.1216 C.ar     1 ZINC000028822453   -0.2300
21     Br21    1.7579   -9.1823   -1.5202 Br       1 ZINC000028822453   -0.0900
22     C22     0.7895   -6.9580   -0.0399 C.ar     1 ZINC000028822453    0.0100
23     C23     0.3300   -4.2711    2.3084 C.2      1 ZINC000028822453   -0.1100
24     O24     0.5976   -5.0367    3.4012 O.3      1 ZINC000028822453   -0.4500
25     C25     0.3137   -2.8582    2.4111 C.2      1 ZINC000028822453    0.4000
26     O26     0.5371   -2.2971    3.4716 O.2      1 ZINC000028822453   -0.4900
27     C27     0.0168   -2.0913    1.1859 C.ar     1 ZINC000028822453   -0.2100
28     C28    -0.0139   -0.6962    1.1964 C.ar     1 ZINC000028822453   -0.0200
29     H29     0.6533    1.8873   -0.1804 H        1 ZINC000028822453    0.0700
30     H30    -1.0475    1.8462   -0.7037 H        1 ZINC000028822453    0.0700
31     H31    -0.6498    1.8446    1.0313 H        1 ZINC000028822453    0.0700
32     H32    -0.7619   -0.1496   -2.0469 H        1 ZINC000028822453    0.1500
33     H33     0.2653   -2.2499   -4.1244 H        1 ZINC000028822453    0.0800
34     H34     1.2056   -3.2071   -2.9578 H        1 ZINC000028822453    0.1000
35     H35     0.3686   -4.4520   -5.0912 H        1 ZINC000028822453    0.1100
36     H36     0.0089   -5.2373   -3.5218 H        1 ZINC000028822453    0.1000
37     H37    -1.8811   -3.5619   -5.2815 H        1 ZINC000028822453    0.1400
38     H38    -2.1858   -5.1691   -4.5372 H        1 ZINC000028822453    0.1500
39     H39    -1.1328   -6.6249    2.7429 H        1 ZINC000028822453    0.1100
40     H40    -1.0963   -9.0767    2.5781 H        1 ZINC000028822453    0.1100
41     H41     1.3181   -6.3648   -0.7713 H        1 ZINC000028822453    0.1100
42     H42     0.7645   -4.5280    4.2064 H        1 ZINC000028822453    0.3900
43     H43     0.1818   -0.1564    2.1111 H        1 ZINC000028822453    0.1400
@<TRIPOS>BOND
1     1     2     1
2     1     29    1
3     1     30    1
4     1     31    1
5     2     28    ar
6     2     3     ar
7     3     4     ar
8     3     32    1
9     4     5     1
10    4     12    ar
11    5     9     am
12    5     6     1
13    6     7     1
14    6     33    1
15    6     34    1
16    7     8     1
17    7     35    1
18    7     36    1
19    8     9     1
20    8     37    1
21    8     38    1
22    9     10    2
23    9     11    2
24    12    27    ar
25    12    13    1
26    13    14    1
27    14    15    1
28    14    23    2
29    15    22    ar
30    15    16    ar
31    16    17    ar
32    16    39    1
33    17    18    ar
34    17    40    1
35    18    19    1
36    18    20    ar
37    20    21    1
38    20    22    ar
39    22    41    1
40    23    24    1
41    23    25    1
42    24    42    1
43    25    26    2
44    25    27    1
45    27    28    ar
46    28    43    1
@<TRIPOS>SUBSTRUCTURE
1   ZINC000028822453 1     RESIDUE    1   A     ZIN   1
