@<TRIPOS>MOLECULE
ZINC000098208034
  47   49    0    0    0
SMALL
USER_CHARGES
NO_NAME
@<TRIPOS>ATOM
    1 O1        0.0021    -0.0041     0.0020 O.2    1 <0>      -0.5500
    2 C2       -0.0144     1.2086     0.0087 C.2    1 <0>       0.5100
    3 C3        1.2803     1.9798     0.0005 C.3    1 <0>      -0.1200
    4 C4        2.4566     1.0015    -0.0160 C.3    1 <0>      -0.0600
    5 C5        3.7513     1.7727    -0.0242 C.2    1 <0>       0.4000
    6 N6        3.6955     3.0698    -0.0114 N.2    1 <0>      -0.5200
    7 C7        4.8191     3.8300    -0.0172 C.ar   1 <0>       0.1600
    8 C8        4.7600     5.2247    -0.0030 C.ar   1 <0>      -0.1100
    9 C9        5.9264     5.9567    -0.0092 C.ar   1 <0>      -0.0700
   10 C10       7.1626     5.3251    -0.0294 C.ar   1 <0>      -0.1400
   11 C11       7.2467     3.9497    -0.0442 C.ar   1 <0>      -0.0400
   12 C12       6.0787     3.1906    -0.0378 C.ar   1 <0>      -0.2000
   13 C13       6.1064     1.7204    -0.0534 C.2    1 <0>       0.5500
   14 O14       7.1581     1.1079    -0.0721 O.2    1 <0>      -0.5100
   15 N15       4.9169     1.0749    -0.0391 N.am   1 <0>      -0.6500
   16 N16      -1.1906     1.8666     0.0178 N.am   1 <0>      -0.7100
   17 C17      -2.4492     1.1169     0.0197 C.3    1 <0>       0.1600
   18 H18      -2.3279     0.2045     0.6037 H      1 <0>       0.1000
   19 C19      -2.8299     0.7557    -1.4175 C.3    1 <0>       0.0600
   20 O20      -3.1026     1.9504    -2.1526 O.3    1 <0>      -0.5700
   21 C21      -3.5535     1.9758     0.6393 C.3    1 <0>      -0.0800
   22 C22      -3.2381     2.2290     2.0910 C.ar   1 <0>      -0.0800
   23 C23      -3.6889     1.3516     3.0595 C.ar   1 <0>      -0.1200
   24 C24      -3.3996     1.5839     4.3911 C.ar   1 <0>      -0.1200
   25 C25      -2.6590     2.6932     4.7542 C.ar   1 <0>      -0.1200
   26 C26      -2.2074     3.5701     3.7857 C.ar   1 <0>      -0.1200
   27 C27      -2.4931     3.3355     2.4536 C.ar   1 <0>      -0.1100
   28 H28       1.3211     2.6120    -0.8866 H      1 <0>       0.1100
   29 H29       1.3381     2.6024     0.8933 H      1 <0>       0.1100
   30 H30       2.4158     0.3693     0.8710 H      1 <0>       0.1100
   31 H31       2.3988     0.3789    -0.9088 H      1 <0>       0.1100
   32 H32       3.8042     5.7271     0.0125 H      1 <0>       0.1400
   33 H33       5.8789     7.0356     0.0015 H      1 <0>       0.1400
   34 H34       8.0661     5.9168    -0.0340 H      1 <0>       0.1300
   35 H35       8.2111     3.4638    -0.0604 H      1 <0>       0.1400
   36 H36       4.8963     0.1051    -0.0484 H      1 <0>       0.4200
   37 H37      -1.2037     2.8365     0.0232 H      1 <0>       0.4000
   38 H38      -2.0055     0.2198    -1.8879 H      1 <0>       0.0500
   39 H39      -3.7175     0.1230    -1.4102 H      1 <0>       0.0600
   40 H40      -3.3511     1.7969    -3.0744 H      1 <0>       0.3800
   41 H41      -3.6146     2.9265     0.1096 H      1 <0>       0.0900
   42 H42      -4.5072     1.4539     0.5603 H      1 <0>       0.0900
   43 H43      -4.2674     0.4849     2.7757 H      1 <0>       0.1200
   44 H44      -3.7524     0.8988     5.1478 H      1 <0>       0.1200
   45 H45      -2.4336     2.8751     5.7947 H      1 <0>       0.1200
   46 H46      -1.6292     4.4370     4.0694 H      1 <0>       0.1200
   47 H47      -2.1403     4.0206     1.6969 H      1 <0>       0.1200
@<TRIPOS>BOND
   1    1    2 2
   2    2    3 1
   3    2   16 am
   4    3    4 1
   5    3   28 1
   6    3   29 1
   7    4    5 1
   8    4   30 1
   9    4   31 1
  10    5   15 1
  11    5    6 2
  12    6    7 1
  13    7   12 ar
  14    7    8 ar
  15    8    9 ar
  16    8   32 1
  17    9   10 ar
  18    9   33 1
  19   10   11 ar
  20   10   34 1
  21   11   12 ar
  22   11   35 1
  23   12   13 1
  24   13   14 2
  25   13   15 am
  26   15   36 1
  27   16   17 1
  28   16   37 1
  29   17   18 1
  30   17   19 1
  31   17   21 1
  32   19   20 1
  33   19   38 1
  34   19   39 1
  35   20   40 1
  36   21   22 1
  37   21   41 1
  38   21   42 1
  39   22   27 ar
  40   22   23 ar
  41   23   24 ar
  42   23   43 1
  43   24   25 ar
  44   24   44 1
  45   25   26 ar
  46   25   45 1
  47   26   27 ar
  48   26   46 1
  49   27   47 1
