@<TRIPOS>MOLECULE
ZINC000068248135
  39   43    0    0    0
SMALL
USER_CHARGES
NO_NAME
@<TRIPOS>ATOM
    1 Cl1       0.0013     0.3958    -1.0343 Cl     1 <0>      -0.0800
    2 C2        0.0055     1.9137    -0.1917 C.ar   1 <0>      -0.0700
    3 C3       -1.1802     2.5909     0.0196 C.ar   1 <0>      -0.1000
    4 C4       -1.1772     3.8002     0.6909 C.ar   1 <0>      -0.1200
    5 C5        0.0110     4.3355     1.1524 C.ar   1 <0>      -0.0700
    6 C6        1.2004     3.6641     0.9443 C.ar   1 <0>      -0.0700
    7 C7        1.2012     2.4468     0.2764 C.ar   1 <0>       0.1500
    8 N8        2.4032     1.7647     0.0642 N.pl3  1 <0>      -0.6300
    9 C9        3.5824     2.4712    -0.0805 C.2    1 <0>       0.4800
   10 N10       3.5646     3.7874    -0.0941 N.2    1 <0>      -0.5200
   11 C11       4.7043     4.5068    -0.2340 C.ar   1 <0>       0.1800
   12 C12       4.6470     5.9179    -0.2439 C.ar   1 <0>       0.0000
   13 C13       3.3504     6.6092    -0.1024 C.2    1 <0>       0.2200
   14 N14       2.1824     6.0453     0.1192 N.2    1 <0>      -0.2300
   15 N15       1.2703     6.9486     0.1857 N.2    1 <0>      -0.3000
   16 C16       1.7964     8.1312     0.0123 C.2    1 <0>       0.1600
   17 N17       3.1350     7.9600    -0.1707 N.pl3  1 <0>      -0.5900
   18 C18       5.8203     6.6532    -0.3875 C.ar   1 <0>      -0.0900
   19 C19       7.0348     6.0077    -0.5201 C.ar   1 <0>      -0.1100
   20 C20       7.1015     4.6268    -0.5120 C.ar   1 <0>      -0.0900
   21 C21       5.9472     3.8702    -0.3693 C.ar   1 <0>       0.0600
   22 N22       6.0180     2.4797    -0.3605 N.pl3  1 <0>      -0.3500
   23 C23       7.0520     1.6082    -0.4697 C.2    1 <0>       0.0100
   24 C24       6.5698     0.3434    -0.3984 C.2    1 <0>      -0.1700
   25 C25       5.1823     0.4199    -0.2385 C.2    1 <0>      -0.1300
   26 C26       4.8516     1.7574    -0.2126 C.2    1 <0>      -0.0400
   27 H27      -2.1101     2.1757    -0.3399 H      1 <0>       0.1300
   28 H28      -2.1053     4.3278     0.8545 H      1 <0>       0.1300
   29 H29       0.0095     5.2800     1.6762 H      1 <0>       0.1300
   30 H30       2.1280     4.0834     1.3050 H      1 <0>       0.1600
   31 H31       2.4095     0.7958     0.0185 H      1 <0>       0.4200
   32 H32       1.2674     9.0728     0.0173 H      1 <0>       0.2200
   33 H33       3.7980     8.6513    -0.3239 H      1 <0>       0.4300
   34 H34       5.7810     7.7324    -0.3956 H      1 <0>       0.1300
   35 H35       7.9396     6.5868    -0.6314 H      1 <0>       0.1400
   36 H36       8.0570     4.1345    -0.6168 H      1 <0>       0.1400
   37 H37       8.0903     1.8782    -0.5939 H      1 <0>       0.1800
   38 H38       7.1538    -0.5634    -0.4552 H      1 <0>       0.1600
   39 H39       4.4995    -0.4121    -0.1492 H      1 <0>       0.1500
@<TRIPOS>BOND
   1    1    2 1
   2    2    7 ar
   3    2    3 ar
   4    3    4 ar
   5    3   27 1
   6    4    5 ar
   7    4   28 1
   8    5    6 ar
   9    5   29 1
  10    6    7 ar
  11    6   30 1
  12    7    8 1
  13    8    9 1
  14    8   31 1
  15    9   26 1
  16    9   10 2
  17   10   11 1
  18   11   21 ar
  19   11   12 ar
  20   12   13 1
  21   12   18 ar
  22   13   17 1
  23   13   14 2
  24   14   15 1
  25   15   16 2
  26   16   17 1
  27   16   32 1
  28   17   33 1
  29   18   19 ar
  30   18   34 1
  31   19   20 ar
  32   19   35 1
  33   20   21 ar
  34   20   36 1
  35   21   22 1
  36   22   26 1
  37   22   23 1
  38   23   24 2
  39   23   37 1
  40   24   25 1
  41   24   38 1
  42   25   26 2
  43   25   39 1
