@<TRIPOS>MOLECULE
ZINC000053119602
67    71    1     0     0
SMALL
USER_CHARGES
@<TRIPOS>ATOM
1      C1      1.0328    1.2816    0.1852 C.3      1 ZINC000053119602    0.0900
2      N2      1.2207   -0.1608    0.0106 N.am     1 ZINC000053119602   -0.7200
3      C3      0.2474   -0.9038   -0.5525 C.2      1 ZINC000053119602    0.6100
4      O4     -0.7864   -0.3772   -0.9155 O.2      1 ZINC000053119602   -0.5200
5      C5      0.4369   -2.3585   -0.7287 C.2      1 ZINC000053119602    0.0000
6      N6      0.3685   -3.2816    0.2191 N.2      1 ZINC000053119602   -0.2400
7      N7      0.5844   -4.4545   -0.2752 N.pl3    1 ZINC000053119602   -0.2500
8      C8      0.5735   -5.7057    0.4869 C.3      1 ZINC000053119602    0.0900
9      C9      0.8208   -4.3543   -1.5975 C.2      1 ZINC000053119602    0.0300
10     C10     0.7156   -3.0191   -1.9253 C.2      1 ZINC000053119602   -0.1100
11     C11     0.8855   -2.5174   -3.3296 C.3      1 ZINC000053119602    0.0100
12     C12    -0.4646   -2.5495   -4.0487 C.3      1 ZINC000053119602   -0.1400
13     C13     1.4110   -1.0809   -3.2970 C.3      1 ZINC000053119602   -0.1500
14     C14     1.8811   -3.4058   -4.0766 C.3      1 ZINC000053119602   -0.0600
15     C15     1.6189   -4.8679   -3.8619 C.ar     1 ZINC000053119602   -0.2000
16     C16     1.8653   -5.7855   -4.8656 C.ar     1 ZINC000053119602    0.1900
17     N17     1.6500   -7.0713   -4.6315 N.ar     1 ZINC000053119602   -0.5600
18     C18     1.2077   -7.4947   -3.4560 C.ar     1 ZINC000053119602    0.5600
19     N19     1.0150   -8.8514   -3.2547 N.pl3    1 ZINC000053119602   -0.6400
20     C20     1.3949   -9.7673   -4.2444 C.ar     1 ZINC000053119602    0.1700
21     C21     2.4975   -9.5051   -5.0467 C.ar     1 ZINC000053119602   -0.0900
22     C22     2.8717  -10.4075   -6.0224 C.ar     1 ZINC000053119602   -0.1000
23     C23     2.1455  -11.5778   -6.2011 C.ar     1 ZINC000053119602    0.0600
24     N24     2.5250  -12.4927   -7.1897 N.3      1 ZINC000053119602   -0.4800
25     C25     2.5729  -11.8508   -8.5110 C.3      1 ZINC000053119602    0.0300
26     C26     3.0482  -12.8672   -9.5516 C.3      1 ZINC000053119602    0.0000
27     N27     2.1261  -14.0102   -9.5766 N.4      1 ZINC000053119602   -0.3900
28     H28     1.1978  -13.6883   -9.8063 H        1 ZINC000053119602    0.4200
29     C29     2.5728  -14.9773  -10.5881 C.3      1 ZINC000053119602   -0.0500
30     C30     2.1077  -14.6557   -8.2573 C.3      1 ZINC000053119602    0.0000
31     C31     1.6246  -13.6542   -7.2060 C.3      1 ZINC000053119602    0.0200
32     C32     1.0431  -11.8402   -5.3984 C.ar     1 ZINC000053119602   -0.1400
33     C33     0.6721  -10.9401   -4.4192 C.ar     1 ZINC000053119602   -0.1200
34     N34     0.9456   -6.6495   -2.4676 N.ar     1 ZINC000053119602   -0.5500
35     C35     1.1199   -5.3502   -2.6408 C.ar     1 ZINC000053119602    0.3000
36     H36     0.8749    1.7478   -0.7873 H        1 ZINC000053119602    0.0700
37     H37     0.1645    1.4607    0.8193 H        1 ZINC000053119602    0.0600
38     H38     1.9192    1.7094    0.6536 H        1 ZINC000053119602    0.0800
39     H39     2.0456   -0.5810    0.3002 H        1 ZINC000053119602    0.4100
40     H40    -0.4341   -6.1215    0.4882 H        1 ZINC000053119602    0.0900
41     H41     1.2595   -6.4171    0.0271 H        1 ZINC000053119602    0.1000
42     H42     0.8869   -5.5094    1.5122 H        1 ZINC000053119602    0.1000
43     H43    -1.1737   -1.9136   -3.5187 H        1 ZINC000053119602    0.0700
44     H44    -0.3418   -2.1852   -5.0686 H        1 ZINC000053119602    0.0700
45     H45    -0.8402   -3.5725   -4.0710 H        1 ZINC000053119602    0.0500
46     H46     2.3142   -1.0381   -2.6883 H        1 ZINC000053119602    0.0600
47     H47     1.6409   -0.7549   -4.3114 H        1 ZINC000053119602    0.0700
48     H48     0.6524   -0.4261   -2.8681 H        1 ZINC000053119602    0.0700
49     H49     1.8167   -3.1887   -5.1428 H        1 ZINC000053119602    0.0900
50     H50     2.8887   -3.1738   -3.7316 H        1 ZINC000053119602    0.0900
51     H51     2.2284   -5.4582   -5.8287 H        1 ZINC000053119602    0.1800
52     H52     0.6170   -9.1674   -2.4285 H        1 ZINC000053119602    0.4300
53     H53     3.0622   -8.5950   -4.9077 H        1 ZINC000053119602    0.1400
54     H54     3.7288  -10.2032   -6.6468 H        1 ZINC000053119602    0.1300
55     H55     1.5782  -11.4946   -8.7785 H        1 ZINC000053119602    0.0700
56     H56     3.2653  -11.0095   -8.4817 H        1 ZINC000053119602    0.1300
57     H57     3.0709  -12.3970  -10.5347 H        1 ZINC000053119602    0.1400
58     H58     4.0486  -13.2130   -9.2912 H        1 ZINC000053119602    0.1400
59     H59     3.5758  -15.3249  -10.3405 H        1 ZINC000053119602    0.1200
60     H60     1.8887  -15.8257  -10.6069 H        1 ZINC000053119602    0.1200
61     H61     2.5855  -14.4991  -11.5675 H        1 ZINC000053119602    0.1200
62     H62     1.4330  -15.5115   -8.2810 H        1 ZINC000053119602    0.1400
63     H63     3.1128  -14.9924   -8.0036 H        1 ZINC000053119602    0.1400
64     H64     1.6250  -14.1285   -6.2246 H        1 ZINC000053119602    0.1300
65     H65     0.6142  -13.3277   -7.4520 H        1 ZINC000053119602    0.0700
66     H66     0.4783  -12.7502   -5.5373 H        1 ZINC000053119602    0.1300
67     H67    -0.1850  -11.1443   -3.7947 H        1 ZINC000053119602    0.1300
@<TRIPOS>BOND
1     1     2     1
2     1     36    1
3     1     37    1
4     1     38    1
5     2     3     am
6     2     39    1
7     3     4     2
8     3     5     1
9     5     10    1
10    5     6     2
11    6     7     1
12    7     8     1
13    7     9     1
14    8     40    1
15    8     41    1
16    8     42    1
17    9     35    1
18    9     10    2
19    10    11    1
20    11    12    1
21    11    13    1
22    11    14    1
23    12    43    1
24    12    44    1
25    12    45    1
26    13    46    1
27    13    47    1
28    13    48    1
29    14    15    1
30    14    49    1
31    14    50    1
32    15    35    ar
33    15    16    ar
34    16    17    ar
35    16    51    1
36    17    18    ar
37    18    19    1
38    18    34    ar
39    19    20    1
40    19    52    1
41    20    33    ar
42    20    21    ar
43    21    22    ar
44    21    53    1
45    22    23    ar
46    22    54    1
47    23    24    1
48    23    32    ar
49    24    31    1
50    24    25    1
51    25    26    1
52    25    55    1
53    25    56    1
54    26    27    1
55    26    57    1
56    26    58    1
57    27    28    1
58    27    29    1
59    27    30    1
60    29    59    1
61    29    60    1
62    29    61    1
63    30    31    1
64    30    62    1
65    30    63    1
66    31    64    1
67    31    65    1
68    32    33    ar
69    32    66    1
70    33    67    1
71    34    35    ar
@<TRIPOS>SUBSTRUCTURE
1   ZINC000053119602 1     RESIDUE    1   A     ZIN   1
