@<TRIPOS>MOLECULE
ZINC000006716363
56    59    1     0     0
SMALL
USER_CHARGES
@<TRIPOS>ATOM
1      C1      0.1959    0.9772   -6.9885 C.3      1 ZINC000006716363    0.0600
2      O2     -0.0833    0.3296   -5.7193 O.3      1 ZINC000006716363   -0.3700
3      C3      0.6732   -0.7366   -5.3975 C.2      1 ZINC000006716363    0.6500
4      O4      1.5430   -1.1156   -6.1566 O.2      1 ZINC000006716363   -0.5400
5      N5      0.4657   -1.3835   -4.2335 N.am     1 ZINC000006716363   -0.7000
6      C6      1.2889   -2.5437   -3.8835 C.3      1 ZINC000006716363    0.1900
7      H7      0.9770   -2.9312   -2.9136 H        1 ZINC000006716363    0.1400
8      C8      1.1165   -3.6307   -4.9463 C.3      1 ZINC000006716363   -0.1200
9      C9     -0.3268   -4.1380   -4.9275 C.3      1 ZINC000006716363   -0.0800
10     S10    -0.5312   -5.4268   -6.1876 S.3      1 ZINC000006716363   -0.2500
11     C11    -2.2753   -5.8944   -6.0139 C.3      1 ZINC000006716363   -0.1200
12     C12     2.7367   -2.1308   -3.8175 C.2      1 ZINC000006716363    0.4400
13     O13     3.1031   -1.1219   -4.3723 O.2      1 ZINC000006716363   -0.4500
14     O14     3.6194   -2.8839   -3.1423 O.3      1 ZINC000006716363   -0.2900
15     C15     4.9259   -2.5127   -3.2087 C.ar     1 ZINC000006716363    0.0700
16     C16     5.3746   -1.4219   -2.4781 C.ar     1 ZINC000006716363   -0.0900
17     C17     6.7009   -1.0443   -2.5449 C.ar     1 ZINC000006716363   -0.1300
18     C18     7.5861   -1.7567   -3.3438 C.ar     1 ZINC000006716363    0.1600
19     N19     8.9305   -1.3749   -3.4117 N.pl3    1 ZINC000006716363   -0.6200
20     C20     9.8986   -2.3100   -3.7146 C.2      1 ZINC000006716363    0.3000
21     N21     9.6793   -3.5854   -3.8347 N.2      1 ZINC000006716363   -0.5000
22     C22    10.7043   -4.3575   -4.1281 C.2      1 ZINC000006716363    0.1200
23     C23    11.8917   -3.6392   -4.2636 C.2      1 ZINC000006716363   -0.3400
24     S24    11.5465   -1.9451   -3.9897 S.3      1 ZINC000006716363    0.2600
25     C25    13.1700   -4.2835   -4.5906 C.2      1 ZINC000006716363    0.4800
26     O26    14.2240   -3.6817   -4.5095 O.2      1 ZINC000006716363   -0.4300
27     C27    13.1181   -5.7059   -5.0252 C.ar     1 ZINC000006716363   -0.1100
28     C28    14.2508   -6.3017   -5.5672 C.ar     1 ZINC000006716363   -0.0700
29     C29    14.2077   -7.6254   -5.9748 C.ar     1 ZINC000006716363   -0.0900
30     C30    13.0434   -8.3577   -5.8453 C.ar     1 ZINC000006716363   -0.1000
31     C31    11.9067   -7.7782   -5.3068 C.ar     1 ZINC000006716363   -0.0600
32     C32    11.9331   -6.4496   -4.8920 C.ar     1 ZINC000006716363   -0.1100
33     C33    10.7082   -5.8386   -4.3170 C.2      1 ZINC000006716363    0.4700
34     O34     9.7475   -6.5168   -4.0119 O.2      1 ZINC000006716363   -0.3900
35     C35     7.1360   -2.8486   -4.0748 C.ar     1 ZINC000006716363   -0.1100
36     C36     5.8105   -3.2283   -4.0025 C.ar     1 ZINC000006716363   -0.0900
37     H37     1.2252    1.3358   -6.9947 H        1 ZINC000006716363    0.0600
38     H38     0.0552    0.2628   -7.7996 H        1 ZINC000006716363    0.0600
39     H39    -0.4830    1.8191   -7.1240 H        1 ZINC000006716363    0.1000
40     H40    -0.2287   -1.0810   -3.6276 H        1 ZINC000006716363    0.4200
41     H41     1.3436   -3.2173   -5.9290 H        1 ZINC000006716363    0.1100
42     H42     1.7949   -4.4571   -4.7342 H        1 ZINC000006716363    0.1000
43     H43    -0.5538   -4.5514   -3.9448 H        1 ZINC000006716363    0.0900
44     H44    -1.0052   -3.3117   -5.1396 H        1 ZINC000006716363    0.0800
45     H45    -2.5153   -6.6762   -6.7345 H        1 ZINC000006716363    0.1000
46     H46    -2.4536   -6.2638   -5.0041 H        1 ZINC000006716363    0.0800
47     H47    -2.9049   -5.0241   -6.1989 H        1 ZINC000006716363    0.0800
48     H48     4.6861   -0.8679   -1.8572 H        1 ZINC000006716363    0.1300
49     H49     7.0500   -0.1950   -1.9763 H        1 ZINC000006716363    0.1400
50     H50     9.1819   -0.4529   -3.2457 H        1 ZINC000006716363    0.4300
51     H51    15.1636   -5.7338   -5.6702 H        1 ZINC000006716363    0.1500
52     H52    15.0885   -8.0867   -6.3963 H        1 ZINC000006716363    0.1400
53     H53    13.0194   -9.3886   -6.1664 H        1 ZINC000006716363    0.1400
54     H54    11.0000   -8.3567   -5.2090 H        1 ZINC000006716363    0.1500
55     H55     7.8235   -3.4031   -4.6963 H        1 ZINC000006716363    0.1500
56     H56     5.4604   -4.0774   -4.5706 H        1 ZINC000006716363    0.1400
@<TRIPOS>BOND
1     1     2     1
2     1     37    1
3     1     38    1
4     1     39    1
5     2     3     1
6     3     4     2
7     3     5     am
8     5     6     1
9     5     40    1
10    6     7     1
11    6     8     1
12    6     12    1
13    8     9     1
14    8     41    1
15    8     42    1
16    9     10    1
17    9     43    1
18    9     44    1
19    10    11    1
20    11    45    1
21    11    46    1
22    11    47    1
23    12    13    2
24    12    14    1
25    14    15    1
26    15    36    ar
27    15    16    ar
28    16    17    ar
29    16    48    1
30    17    18    ar
31    17    49    1
32    18    19    1
33    18    35    ar
34    19    20    1
35    19    50    1
36    20    24    1
37    20    21    2
38    21    22    1
39    22    33    1
40    22    23    2
41    23    24    1
42    23    25    1
43    25    26    2
44    25    27    1
45    27    32    ar
46    27    28    ar
47    28    29    ar
48    28    51    1
49    29    30    ar
50    29    52    1
51    30    31    ar
52    30    53    1
53    31    32    ar
54    31    54    1
55    32    33    1
56    33    34    2
57    35    36    ar
58    35    55    1
59    36    56    1
@<TRIPOS>SUBSTRUCTURE
1   ZINC000006716363 1     RESIDUE    1   A     ZIN   1
