@<TRIPOS>MOLECULE
ZINC000011757505
  38   41    0    0    0
SMALL
USER_CHARGES
NO_NAME
@<TRIPOS>ATOM
    1 N1       -0.0375     1.3821    -0.0172 N.pl3  1 <0>      -0.8800
    2 C2       -0.0146    -0.0145    -0.0004 C.ar   1 <0>       0.2200
    3 C3       -1.2061    -0.7287     0.0474 C.ar   1 <0>      -0.1900
    4 C4       -1.1886    -2.1109     0.0641 C.ar   1 <0>      -0.0600
    5 C5        0.0118    -2.7908     0.0335 C.ar   1 <0>      -0.1500
    6 C6        1.2142    -2.0827    -0.0146 C.ar   1 <0>       0.0200
    7 C7        2.5019    -2.8090    -0.0471 C.2    1 <0>       0.1200
    8 C8        2.6404    -4.1587    -0.0397 C.2    1 <0>      -0.1300
    9 C9        4.0721    -4.4347    -0.0812 C.ar   1 <0>      -0.2200
   10 C10       4.8571    -5.5972    -0.0949 C.ar   1 <0>       0.4200
   11 O11       4.2822    -6.8231    -0.0671 O.3    1 <0>      -0.2300
   12 C12       5.0902    -7.9095    -0.1837 C.ar   1 <0>       0.1000
   13 C13       5.1648    -8.5934    -1.3888 C.ar   1 <0>      -0.1200
   14 C14       5.9868    -9.6979    -1.5080 C.ar   1 <0>      -0.0900
   15 C15       6.7357   -10.1243    -0.4282 C.ar   1 <0>      -0.1400
   16 C16       6.6645    -9.4437     0.7794 C.ar   1 <0>       0.1200
   17 O17       7.4015    -9.8638     1.8411 O.3    1 <0>      -0.5000
   18 C18       5.8453    -8.3322     0.9000 C.ar   1 <0>      -0.1300
   19 N19       6.1780    -5.4658    -0.1361 N.ar   1 <0>      -0.5800
   20 C20       6.7438    -4.2726    -0.1637 C.ar   1 <0>       0.3600
   21 N21       6.0490    -3.1553    -0.1520 N.ar   1 <0>      -0.5500
   22 C22       4.7187    -3.1825    -0.1118 C.ar   1 <0>       0.3500
   23 N23       3.7469    -2.2196    -0.0955 N.pl3  1 <0>      -0.5600
   24 C24       1.1966    -0.6887    -0.0373 C.ar   1 <0>      -0.1900
   25 H25       0.7939     1.8804    -0.0546 H      1 <0>       0.4000
   26 H26      -0.8849     1.8536     0.0046 H      1 <0>       0.4000
   27 H27      -2.1487    -0.2020     0.0719 H      1 <0>       0.1200
   28 H28      -2.1176    -2.6605     0.1017 H      1 <0>       0.1300
   29 H29       0.0212    -3.8706     0.0470 H      1 <0>       0.1300
   30 H30       1.8443    -4.8878    -0.0085 H      1 <0>       0.1600
   31 H31       4.5798    -8.2624    -2.2342 H      1 <0>       0.1300
   32 H32       6.0435   -10.2288    -2.4468 H      1 <0>       0.1400
   33 H33       7.3767   -10.9882    -0.5237 H      1 <0>       0.1400
   34 H34       8.2800    -9.4631     1.8933 H      1 <0>       0.3900
   35 H35       5.7886    -7.8013     1.8387 H      1 <0>       0.1300
   36 H36       7.8216    -4.2115    -0.1970 H      1 <0>       0.2100
   37 H37       3.9100    -1.2636    -0.1135 H      1 <0>       0.4200
   38 H38       2.1236    -0.1357    -0.0745 H      1 <0>       0.1200
@<TRIPOS>BOND
   1    1    2 1
   2    1   25 1
   3    1   26 1
   4    2   24 ar
   5    2    3 ar
   6    3    4 ar
   7    3   27 1
   8    4    5 ar
   9    4   28 1
  10    5    6 ar
  11    5   29 1
  12    6    7 1
  13    6   24 ar
  14    7   23 1
  15    7    8 2
  16    8    9 1
  17    8   30 1
  18    9   22 ar
  19    9   10 ar
  20   10   11 1
  21   10   19 ar
  22   11   12 1
  23   12   18 ar
  24   12   13 ar
  25   13   14 ar
  26   13   31 1
  27   14   15 ar
  28   14   32 1
  29   15   16 ar
  30   15   33 1
  31   16   17 1
  32   16   18 ar
  33   17   34 1
  34   18   35 1
  35   19   20 ar
  36   20   21 ar
  37   20   36 1
  38   21   22 ar
  39   22   23 1
  40   23   37 1
  41   24   38 1
