@<TRIPOS>MOLECULE
ZINC000043284669
87    90    1     0     0
SMALL
USER_CHARGES
@<TRIPOS>ATOM
1      C1     -1.4368    0.5401   -1.1550 C.3      1 ZINC000043284669   -0.1500
2      C2     -1.1443   -0.9175   -0.9082 C.2      1 ZINC000043284669    0.4600
3      O3     -0.0018   -1.2935   -0.7939 O.2      1 ZINC000043284669   -0.5100
4      O4     -2.1531   -1.7981   -0.8153 O.3      1 ZINC000043284669   -0.3500
5      C5     -1.7972   -3.1854   -0.5766 C.3      1 ZINC000043284669    0.1300
6      H6     -0.8223   -3.3922   -1.0181 H        1 ZINC000043284669    0.1000
7      C7     -1.7427   -3.4418    0.9015 C.2      1 ZINC000043284669   -0.1800
8      C8     -2.0833   -4.5729    1.4353 C.2      1 ZINC000043284669   -0.0700
9      C9     -1.9873   -4.7702    2.9236 C.3      1 ZINC000043284669   -0.0600
10     H10    -2.9704   -4.9594    3.3548 H        1 ZINC000043284669    0.0900
11     C11    -1.2470   -3.6820    3.7055 C.3      1 ZINC000043284669   -0.1200
12     C12    -0.7754   -4.4358    4.9811 C.3      1 ZINC000043284669   -0.1100
13     C13    -0.7040   -5.9374    4.5986 C.3      1 ZINC000043284669   -0.0600
14     H14    -1.4395   -6.5081    5.1657 H        1 ZINC000043284669    0.0700
15     C15     0.7023   -6.4843    4.8519 C.3      1 ZINC000043284669   -0.1100
16     H16     1.4281   -5.8926    4.2941 H        1 ZINC000043284669    0.0800
17     C17     0.7727   -7.9423    4.3935 C.3      1 ZINC000043284669   -0.1600
18     C18     1.0193   -6.4037    6.3465 C.3      1 ZINC000043284669    0.1100
19     H19     0.2375   -6.9112    6.9116 H        1 ZINC000043284669    0.0900
20     O20     1.0830   -5.0333    6.7467 O.3      1 ZINC000043284669   -0.5500
21     C21     2.3654   -7.0778    6.6194 C.3      1 ZINC000043284669   -0.1600
22     C22     2.6242   -7.1080    8.1270 C.3      1 ZINC000043284669   -0.1100
23     C23     3.9703   -7.7822    8.4000 C.3      1 ZINC000043284669   -0.1000
24     C24     5.0964   -6.9288    7.8129 C.3      1 ZINC000043284669   -0.1500
25     C25     4.1725   -7.9247    9.9098 C.3      1 ZINC000043284669   -0.1500
26     C26    -1.0461   -5.9935    3.1139 C.3      1 ZINC000043284669   -0.0500
27     C27     0.2241   -5.7544    2.2952 C.3      1 ZINC000043284669   -0.1600
28     C28    -1.7420   -7.2234    2.5804 C.3      1 ZINC000043284669   -0.1400
29     C29    -1.8484   -7.0673    1.0535 C.3      1 ZINC000043284669    0.1100
30     H30    -0.8450   -7.0237    0.6300 H        1 ZINC000043284669    0.0700
31     O31    -2.5319   -8.2011    0.5157 O.3      1 ZINC000043284669   -0.5600
32     C32    -2.5843   -5.7599    0.6552 C.3      1 ZINC000043284669   -0.0400
33     H33    -3.6314   -5.8761    0.9350 H        1 ZINC000043284669    0.0800
34     C34    -2.5335   -5.5644   -0.8517 C.3      1 ZINC000043284669   -0.0400
35     C35    -1.1343   -5.9199   -1.3584 C.3      1 ZINC000043284669   -0.1600
36     C36    -3.5415   -6.5057   -1.5166 C.3      1 ZINC000043284669   -0.1100
37     C37    -3.4837   -6.3373   -3.0352 C.3      1 ZINC000043284669   -0.1400
38     C38    -3.8330   -4.8908   -3.3941 C.3      1 ZINC000043284669    0.0900
39     H39    -4.8312   -4.6550   -3.0252 H        1 ZINC000043284669    0.0900
40     O40    -3.7974   -4.7267   -4.8363 O.3      1 ZINC000043284669   -0.3500
41     C41    -4.9399   -4.9527   -5.5037 C.2      1 ZINC000043284669    0.4600
42     C42    -4.9794   -4.8020   -7.0027 C.3      1 ZINC000043284669   -0.1500
43     O43    -5.9367   -5.2770   -4.9027 O.2      1 ZINC000043284669   -0.5100
44     C44    -2.8142   -3.9525   -2.7467 C.3      1 ZINC000043284669   -0.1100
45     C45    -2.8513   -4.1010   -1.2111 C.3      1 ZINC000043284669   -0.0600
46     H46    -3.8331   -3.8103   -0.8374 H        1 ZINC000043284669    0.0900
47     H47    -0.5004    1.0961   -1.1995 H        1 ZINC000043284669    0.1000
48     H48    -1.9692    0.6489   -2.1000 H        1 ZINC000043284669    0.1000
49     H49    -2.0525    0.9295   -0.3442 H        1 ZINC000043284669    0.1000
50     H50    -1.4044   -2.6472    1.5500 H        1 ZINC000043284669    0.1200
51     H51    -0.3932   -3.3117    3.1379 H        1 ZINC000043284669    0.0700
52     H52    -1.9219   -2.8667    3.9660 H        1 ZINC000043284669    0.0600
53     H53     0.2091   -4.0795    5.2840 H        1 ZINC000043284669    0.0800
54     H54    -1.4921   -4.2890    5.7891 H        1 ZINC000043284669    0.0600
55     H55     0.5468   -7.9998    3.3287 H        1 ZINC000043284669    0.0700
56     H56     1.7746   -8.3319    4.5739 H        1 ZINC000043284669    0.0600
57     H57     0.0468   -8.5340    4.9513 H        1 ZINC000043284669    0.0600
58     H58     1.7586   -4.5194    6.2835 H        1 ZINC000043284669    0.3700
59     H59     2.3461   -8.0971    6.2336 H        1 ZINC000043284669    0.0700
60     H60     3.1592   -6.5173    6.1256 H        1 ZINC000043284669    0.0700
61     H61     2.6435   -6.0888    8.5129 H        1 ZINC000043284669    0.0700
62     H62     1.8304   -7.6685    8.6208 H        1 ZINC000043284669    0.0600
63     H63     3.9830   -8.7689    7.9369 H        1 ZINC000043284669    0.0700
64     H64     5.0837   -5.9421    8.2760 H        1 ZINC000043284669    0.0500
65     H65     6.0554   -7.4091    8.0074 H        1 ZINC000043284669    0.0500
66     H66     4.9524   -6.8273    6.7373 H        1 ZINC000043284669    0.0500
67     H67     3.3702   -8.5327   10.3280 H        1 ZINC000043284669    0.0500
68     H68     5.1315   -8.4050   10.1043 H        1 ZINC000043284669    0.0500
69     H69     4.1598   -6.9380   10.3729 H        1 ZINC000043284669    0.0500
70     H70     0.8932   -6.6078    2.4051 H        1 ZINC000043284669    0.0600
71     H71    -0.0387   -5.6316    1.2445 H        1 ZINC000043284669    0.0600
72     H72     0.7226   -4.8534    2.6528 H        1 ZINC000043284669    0.0600
73     H73    -1.1597   -8.1126    2.8221 H        1 ZINC000043284669    0.0800
74     H74    -2.7385   -7.3028    3.0149 H        1 ZINC000043284669    0.0700
75     H75    -2.0925   -9.0446    0.6904 H        1 ZINC000043284669    0.3800
76     H76    -0.9136   -6.9596   -1.1168 H        1 ZINC000043284669    0.0700
77     H77    -1.0929   -5.7812   -2.4387 H        1 ZINC000043284669    0.0600
78     H78    -0.3994   -5.2720   -0.8805 H        1 ZINC000043284669    0.0600
79     H79    -3.3006   -7.5365   -1.2569 H        1 ZINC000043284669    0.1000
80     H80    -4.5454   -6.2693   -1.1638 H        1 ZINC000043284669    0.0600
81     H81    -2.4789   -6.5680   -3.3893 H        1 ZINC000043284669    0.0800
82     H82    -4.1999   -7.0121   -3.5041 H        1 ZINC000043284669    0.0700
83     H83    -4.7312   -5.7548   -7.4703 H        1 ZINC000043284669    0.1000
84     H84    -5.9790   -4.4955   -7.3108 H        1 ZINC000043284669    0.1000
85     H85    -4.2566   -4.0467   -7.3110 H        1 ZINC000043284669    0.0900
86     H86    -1.8162   -4.1926   -3.1134 H        1 ZINC000043284669    0.0800
87     H87    -3.0557   -2.9215   -3.0053 H        1 ZINC000043284669    0.0800
@<TRIPOS>BOND
1     1     2     1
2     1     47    1
3     1     48    1
4     1     49    1
5     2     3     2
6     2     4     1
7     4     5     1
8     5     6     1
9     5     45    1
10    5     7     1
11    7     8     2
12    7     50    1
13    8     32    1
14    8     9     1
15    9     10    1
16    9     26    1
17    9     11    1
18    11    12    1
19    11    51    1
20    11    52    1
21    12    13    1
22    12    53    1
23    12    54    1
24    13    14    1
25    13    15    1
26    13    26    1
27    15    16    1
28    15    17    1
29    15    18    1
30    17    55    1
31    17    56    1
32    17    57    1
33    18    19    1
34    18    20    1
35    18    21    1
36    20    58    1
37    21    22    1
38    21    59    1
39    21    60    1
40    22    23    1
41    22    61    1
42    22    62    1
43    23    24    1
44    23    25    1
45    23    63    1
46    24    64    1
47    24    65    1
48    24    66    1
49    25    67    1
50    25    68    1
51    25    69    1
52    26    27    1
53    26    28    1
54    27    70    1
55    27    71    1
56    27    72    1
57    28    29    1
58    28    73    1
59    28    74    1
60    29    30    1
61    29    31    1
62    29    32    1
63    31    75    1
64    32    33    1
65    32    34    1
66    34    45    1
67    34    35    1
68    34    36    1
69    35    76    1
70    35    77    1
71    35    78    1
72    36    37    1
73    36    79    1
74    36    80    1
75    37    38    1
76    37    81    1
77    37    82    1
78    38    39    1
79    38    40    1
80    38    44    1
81    40    41    1
82    41    42    1
83    41    43    2
84    42    83    1
85    42    84    1
86    42    85    1
87    44    45    1
88    44    86    1
89    44    87    1
90    45    46    1
@<TRIPOS>SUBSTRUCTURE
1   ZINC000043284669 1     RESIDUE    1   A     ZIN   1
