@<TRIPOS>MOLECULE
ZINC000145190226
65    70    1     0     0
SMALL
USER_CHARGES
@<TRIPOS>ATOM
1      C1     -1.5653    1.4431   -0.6997 C.3      1 ZINC000145190226    0.0300
2      O2     -0.9706    0.1709   -0.4350 O.3      1 ZINC000145190226   -0.3100
3      C3     -0.3729   -0.4614   -1.4812 C.ar     1 ZINC000145190226    0.0900
4      C4     -0.3555    0.1339   -2.7317 C.ar     1 ZINC000145190226   -0.1500
5      C5      0.2508   -0.5072   -3.7957 C.ar     1 ZINC000145190226   -0.1100
6      C6      0.8441   -1.7491   -3.6131 C.ar     1 ZINC000145190226    0.1500
7      N7      1.4580   -2.3967   -4.6912 N.pl3    1 ZINC000145190226   -0.6300
8      C8      2.0927   -1.6548   -5.6751 C.2      1 ZINC000145190226    0.4900
9      N9      2.2143   -0.3503   -5.5447 N.2      1 ZINC000145190226   -0.5300
10     C10     2.8261    0.3890   -6.4865 C.2      1 ZINC000145190226    0.1700
11     C11     2.9419    1.8564   -6.3007 C.ar     1 ZINC000145190226   -0.0400
12     C12     3.5689    2.6360   -7.2723 C.ar     1 ZINC000145190226   -0.0700
13     C13     3.6777    4.0026   -7.1020 C.ar     1 ZINC000145190226   -0.1200
14     C14     3.1677    4.6057   -5.9702 C.ar     1 ZINC000145190226   -0.0700
15     C15     2.5375    3.8360   -4.9897 C.ar     1 ZINC000145190226   -0.1400
16     C16     1.9913    4.4823   -3.7775 C.2      1 ZINC000145190226    0.5600
17     O17     1.4431    3.8109   -2.9252 O.2      1 ZINC000145190226   -0.5000
18     N18     2.1012    5.8160   -3.6174 N.am     1 ZINC000145190226   -0.6700
19     C19     1.6781    6.4142   -2.4269 C.ar     1 ZINC000145190226    0.1600
20     C20     1.8136    5.7342   -1.2224 C.ar     1 ZINC000145190226   -0.1200
21     C21     1.3970    6.3224   -0.0470 C.ar     1 ZINC000145190226   -0.0700
22     C22     0.8397    7.5997   -0.0674 C.ar     1 ZINC000145190226   -0.0300
23     C23     0.3910    8.2349    1.1964 C.2      1 ZINC000145190226    0.1200
24     N24     0.4676    7.7054    2.3991 N.2      1 ZINC000145190226   -0.2800
25     N25    -0.0612    8.6247    3.3140 N.pl3    1 ZINC000145190226   -0.4700
26     C26    -0.4569    9.7192    2.6293 C.2      1 ZINC000145190226    0.0600
27     C27    -0.1865    9.5136    1.3218 C.2      1 ZINC000145190226   -0.2600
28     C28     0.7048    8.2798   -1.2765 C.ar     1 ZINC000145190226   -0.0700
29     C29     1.1279    7.6903   -2.4489 C.ar     1 ZINC000145190226   -0.1500
30     C30     2.4202    2.4576   -5.1596 C.ar     1 ZINC000145190226   -0.0100
31     C31     3.3405   -0.1856   -7.6055 C.2      1 ZINC000145190226   -0.0500
32     N32     3.2379   -1.5387   -7.7847 N.pl3    1 ZINC000145190226   -0.3300
33     C33     3.6403   -2.3875   -8.7697 C.2      1 ZINC000145190226   -0.0600
34     C34     3.2604   -3.6342   -8.4014 C.2      1 ZINC000145190226    0.0300
35     N35     2.6410   -3.5584   -7.2228 N.2      1 ZINC000145190226   -0.4600
36     C36     2.6194   -2.2984   -6.8244 C.2      1 ZINC000145190226    0.1400
37     C37     0.8288   -2.3485   -2.3603 C.ar     1 ZINC000145190226   -0.2000
38     C38     0.2259   -1.7038   -1.2934 C.ar     1 ZINC000145190226    0.1200
39     O39     0.2100   -2.2884   -0.0657 O.3      1 ZINC000145190226   -0.3000
40     C40     0.8341   -3.5686    0.0513 C.3      1 ZINC000145190226    0.0300
41     H41    -0.8024    2.1325   -1.0615 H        1 ZINC000145190226    0.0600
42     H42    -2.3418    1.3308   -1.4564 H        1 ZINC000145190226    0.0500
43     H43    -2.0052    1.8363    0.2168 H        1 ZINC000145190226    0.1000
44     H44    -0.8165    1.0999   -2.8757 H        1 ZINC000145190226    0.1400
45     H45     0.2627   -0.0417   -4.7702 H        1 ZINC000145190226    0.1400
46     H46     1.4393   -3.3648   -4.7499 H        1 ZINC000145190226    0.4300
47     H47     3.9707    2.1701   -8.1599 H        1 ZINC000145190226    0.1300
48     H48     4.1642    4.6016   -7.8576 H        1 ZINC000145190226    0.1400
49     H49     3.2563    5.6745   -5.8422 H        1 ZINC000145190226    0.1300
50     H50     2.4738    6.3608   -4.3282 H        1 ZINC000145190226    0.4100
51     H51     2.2451    4.7443   -1.2070 H        1 ZINC000145190226    0.1400
52     H52     1.5021    5.7935    0.8888 H        1 ZINC000145190226    0.1300
53     H53    -0.1315    8.4970    4.2730 H        1 ZINC000145190226    0.4400
54     H54    -0.9067   10.6050    3.0529 H        1 ZINC000145190226    0.1800
55     H55    -0.3845   10.2038    0.5152 H        1 ZINC000145190226    0.1500
56     H56     0.2732    9.2697   -1.2946 H        1 ZINC000145190226    0.1300
57     H57     1.0236    8.2169   -3.3860 H        1 ZINC000145190226    0.1300
58     H58     1.9335    1.8577   -4.4049 H        1 ZINC000145190226    0.1500
59     H59     3.8286    0.4239   -8.3516 H        1 ZINC000145190226    0.1700
60     H60     4.1637   -2.1176   -9.6750 H        1 ZINC000145190226    0.1900
61     H61     3.4303   -4.5381   -8.9675 H        1 ZINC000145190226    0.1900
62     H62     1.2901   -3.3145   -2.2175 H        1 ZINC000145190226    0.1400
63     H63     0.3412   -4.2755   -0.6161 H        1 ZINC000145190226    0.0500
64     H64     1.8865   -3.4859   -0.2200 H        1 ZINC000145190226    0.0500
65     H65     0.7506   -3.9209    1.0795 H        1 ZINC000145190226    0.1000
@<TRIPOS>BOND
1     1     2     1
2     1     41    1
3     1     42    1
4     1     43    1
5     2     3     1
6     3     38    ar
7     3     4     ar
8     4     5     ar
9     4     44    1
10    5     6     ar
11    5     45    1
12    6     7     1
13    6     37    ar
14    7     8     1
15    7     46    1
16    8     36    1
17    8     9     2
18    9     10    1
19    10    11    1
20    10    31    2
21    11    30    ar
22    11    12    ar
23    12    13    ar
24    12    47    1
25    13    14    ar
26    13    48    1
27    14    15    ar
28    14    49    1
29    15    16    1
30    15    30    ar
31    16    17    2
32    16    18    am
33    18    19    1
34    18    50    1
35    19    29    ar
36    19    20    ar
37    20    21    ar
38    20    51    1
39    21    22    ar
40    21    52    1
41    22    23    1
42    22    28    ar
43    23    27    1
44    23    24    2
45    24    25    1
46    25    26    1
47    25    53    1
48    26    27    2
49    26    54    1
50    27    55    1
51    28    29    ar
52    28    56    1
53    29    57    1
54    30    58    1
55    31    32    1
56    31    59    1
57    32    36    1
58    32    33    1
59    33    34    2
60    33    60    1
61    34    35    1
62    34    61    1
63    35    36    2
64    37    38    ar
65    37    62    1
66    38    39    1
67    39    40    1
68    40    63    1
69    40    64    1
70    40    65    1
@<TRIPOS>SUBSTRUCTURE
1   ZINC000145190226 1     RESIDUE    1   A     ZIN   1
