@<TRIPOS>MOLECULE
ZINC000068245474
59    63    1     0     0
SMALL
USER_CHARGES
@<TRIPOS>ATOM
1      C1      0.4761    2.6628   -0.7961 C.3      1 ZINC000068245474   -0.1100
2      C2      0.3483    1.1803   -0.5570 C.ar     1 ZINC000068245474    0.1400
3      C3      0.2740    0.3207   -1.6376 C.ar     1 ZINC000068245474   -0.1800
4      C4      0.1566   -1.0404   -1.4134 C.ar     1 ZINC000068245474   -0.0300
5      C5      0.1178   -1.4936   -0.0916 C.ar     1 ZINC000068245474   -0.1200
6      C6     -0.0065   -2.9411    0.2054 C.ar     1 ZINC000068245474    0.2100
7      C7     -0.0489   -3.3676    1.5411 C.ar     1 ZINC000068245474   -0.1500
8      C8     -0.1630   -4.6958    1.8266 C.ar     1 ZINC000068245474   -0.0300
9      C9     -0.2357   -5.6089    0.7558 C.ar     1 ZINC000068245474    0.0800
10     N10    -0.3487   -6.9218    0.9812 N.ar     1 ZINC000068245474   -0.4500
11     C11    -0.4185   -7.7910    0.0011 C.ar     1 ZINC000068245474    0.1700
12     C12    -0.3779   -7.3851   -1.3339 C.ar     1 ZINC000068245474    0.0300
13     C13    -0.2613   -6.0336   -1.6368 C.ar     1 ZINC000068245474    0.1500
14     C14    -0.1874   -5.1115   -0.5703 C.ar     1 ZINC000068245474    0.1200
15     N15    -0.0805   -3.8021   -0.7923 N.ar     1 ZINC000068245474   -0.4700
16     N16    -0.2462   -5.9233   -3.0146 N.am     1 ZINC000068245474   -0.5100
17     C17    -0.1364   -4.6748   -3.7732 C.3      1 ZINC000068245474    0.1600
18     C18     1.1186   -4.7185   -4.6480 C.3      1 ZINC000068245474   -0.1500
19     C19     1.2487   -3.3979   -5.4135 C.3      1 ZINC000068245474    0.1200
20     N20     0.0039   -3.1568   -6.1557 N.am     1 ZINC000068245474   -0.6100
21     C21     0.0305   -2.9163   -7.4815 C.2      1 ZINC000068245474    0.4900
22     O22     1.0925   -2.8010   -8.0557 O.2      1 ZINC000068245474   -0.5300
23     C23    -1.2594   -2.7905   -8.2506 C.3      1 ZINC000068245474    0.0900
24     H24    -1.9234   -2.0965   -7.7353 H        1 ZINC000068245474    0.1200
25     C25    -1.9310   -4.1618   -8.3478 C.3      1 ZINC000068245474   -0.1900
26     O26    -0.9847   -2.3004   -9.5645 O.3      1 ZINC000068245474   -0.5400
27     C27    -1.2706   -3.1835   -5.4252 C.3      1 ZINC000068245474    0.1100
28     C28    -1.3726   -4.5065   -4.6596 C.3      1 ZINC000068245474   -0.1500
29     C29    -0.3495   -7.1590   -3.5413 C.2      1 ZINC000068245474    0.6700
30     O30    -0.3667   -7.4172   -4.7304 O.2      1 ZINC000068245474   -0.5400
31     N31    -0.4310   -8.0644   -2.5471 N.am     1 ZINC000068245474   -0.5200
32     C32    -0.5541   -9.5146   -2.7145 C.3      1 ZINC000068245474    0.0900
33     C33     0.1983   -0.5626    0.9427 C.ar     1 ZINC000068245474    0.1300
34     N34     0.3145    0.7228    0.6799 N.ar     1 ZINC000068245474   -0.4800
35     H35     1.5307    2.9311   -0.8587 H        1 ZINC000068245474    0.0800
36     H36    -0.0214    2.9244   -1.7300 H        1 ZINC000068245474    0.0800
37     H37     0.0115    3.2050    0.0274 H        1 ZINC000068245474    0.0800
38     H38     0.3068    0.7070   -2.6456 H        1 ZINC000068245474    0.1400
39     H39     0.0963   -1.7344   -2.2387 H        1 ZINC000068245474    0.1400
40     H40     0.0092   -2.6452    2.3418 H        1 ZINC000068245474    0.1500
41     H41    -0.1966   -5.0402    2.8496 H        1 ZINC000068245474    0.1600
42     H42    -0.5089   -8.8422    0.2318 H        1 ZINC000068245474    0.1700
43     H43    -0.0680   -3.8348   -3.0820 H        1 ZINC000068245474    0.1200
44     H44     1.9964   -4.8618   -4.0180 H        1 ZINC000068245474    0.0800
45     H45     1.0399   -5.5433   -5.3563 H        1 ZINC000068245474    0.0900
46     H46     1.4183   -2.5829   -4.7098 H        1 ZINC000068245474    0.0700
47     H47     2.0838   -3.4607   -6.1112 H        1 ZINC000068245474    0.1000
48     H48    -2.2045   -4.5040   -7.3497 H        1 ZINC000068245474    0.0700
49     H49    -2.8269   -4.0847   -8.9638 H        1 ZINC000068245474    0.0800
50     H50    -1.2399   -4.8737   -8.7992 H        1 ZINC000068245474    0.0700
51     H51    -0.3984   -2.8693  -10.0819 H        1 ZINC000068245474    0.3900
52     H52    -1.3065   -2.3510   -4.7225 H        1 ZINC000068245474    0.0800
53     H53    -2.0979   -3.1049   -6.1306 H        1 ZINC000068245474    0.1000
54     H54    -1.4278   -5.3333   -5.3677 H        1 ZINC000068245474    0.0900
55     H55    -2.2678   -4.4989   -4.0378 H        1 ZINC000068245474    0.0800
56     H56    -0.5709   -9.7576   -3.7769 H        1 ZINC000068245474    0.1000
57     H57     0.2952  -10.0082   -2.2422 H        1 ZINC000068245474    0.0800
58     H58    -1.4783   -9.8569   -2.2488 H        1 ZINC000068245474    0.0800
59     H59     0.1691   -0.8986    1.9687 H        1 ZINC000068245474    0.1600
@<TRIPOS>BOND
1     1     2     1
2     1     35    1
3     1     36    1
4     1     37    1
5     2     34    ar
6     2     3     ar
7     3     4     ar
8     3     38    1
9     4     5     ar
10    4     39    1
11    5     6     1
12    5     33    ar
13    6     15    ar
14    6     7     ar
15    7     8     ar
16    7     40    1
17    8     9     ar
18    8     41    1
19    9     14    ar
20    9     10    ar
21    10    11    ar
22    11    12    ar
23    11    42    1
24    12    31    1
25    12    13    ar
26    13    14    ar
27    13    16    1
28    14    15    ar
29    16    17    1
30    16    29    am
31    17    28    1
32    17    18    1
33    17    43    1
34    18    19    1
35    18    44    1
36    18    45    1
37    19    20    1
38    19    46    1
39    19    47    1
40    20    21    am
41    20    27    1
42    21    22    2
43    21    23    1
44    23    24    1
45    23    25    1
46    23    26    1
47    25    48    1
48    25    49    1
49    25    50    1
50    26    51    1
51    27    28    1
52    27    52    1
53    27    53    1
54    28    54    1
55    28    55    1
56    29    30    2
57    29    31    am
58    31    32    1
59    32    56    1
60    32    57    1
61    32    58    1
62    33    34    ar
63    33    59    1
@<TRIPOS>SUBSTRUCTURE
1   ZINC000068245474 1     RESIDUE    1   A     ZIN   1
