@<TRIPOS>MOLECULE
ZINC000003817467
  36   38    0    0    0
SMALL
USER_CHARGES
NO_NAME
@<TRIPOS>ATOM
    1 O1       -1.3597     0.9268     0.3289 O.3    1 <0>      -0.5000
    2 C2       -0.6613    -0.2187     0.1123 C.ar   1 <0>       0.1300
    3 C3       -0.8536    -0.9373    -1.0568 C.ar   1 <0>      -0.1800
    4 C4       -0.1386    -2.1072    -1.2749 C.ar   1 <0>       0.1700
    5 N5       -0.3294    -2.8346    -2.4530 N.pl3  1 <0>      -0.6400
    6 C6       -0.2071    -4.2168    -2.4425 C.ar   1 <0>       0.4500
    7 N7       -0.0225    -4.8687    -1.2994 N.ar   1 <0>      -0.5800
    8 C8        0.0947    -6.1881    -1.2861 C.ar   1 <0>       0.5900
    9 N9        0.2860    -6.8370    -0.0759 N.pl3  1 <0>      -0.6300
   10 C10       0.5139    -8.2161    -0.0506 C.ar   1 <0>       0.1800
   11 C11       1.2278    -8.8213    -1.0754 C.ar   1 <0>      -0.1400
   12 C12       1.4521   -10.1889    -1.0465 C.ar   1 <0>       0.1300
   13 O13       2.1512   -10.7846    -2.0481 O.3    1 <0>      -0.5000
   14 C14       0.9628   -10.9494     0.0061 C.ar   1 <0>      -0.1600
   15 C15       0.2516   -10.3451     1.0257 C.ar   1 <0>      -0.0800
   16 C16       0.0309    -8.9819     1.0035 C.ar   1 <0>      -0.1600
   17 N17       0.0333    -6.9032    -2.3988 N.ar   1 <0>      -0.5600
   18 C18      -0.1490    -6.3195    -3.5751 C.ar   1 <0>       0.2000
   19 C19      -0.2820    -4.9449    -3.6340 C.ar   1 <0>      -0.1100
   20 F20      -0.4689    -4.3185    -4.8163 F      1 <0>      -0.1300
   21 C21       0.7672    -2.5535    -0.3208 C.ar   1 <0>      -0.1200
   22 C22       0.9560    -1.8341     0.8434 C.ar   1 <0>      -0.0800
   23 C23       0.2494    -0.6665     1.0595 C.ar   1 <0>      -0.1600
   24 H24      -0.9225     1.7228    -0.0034 H      1 <0>       0.3900
   25 H25      -1.5587    -0.5882    -1.7966 H      1 <0>       0.1300
   26 H26      -0.5473    -2.3733    -3.2780 H      1 <0>       0.4300
   27 H27       0.2618    -6.3342     0.7532 H      1 <0>       0.4300
   28 H28       1.6076    -8.2280    -1.8940 H      1 <0>       0.1400
   29 H29       3.1048   -10.8243    -1.8926 H      1 <0>       0.3900
   30 H30       1.1376   -12.0149     0.0286 H      1 <0>       0.1300
   31 H31      -0.1284   -10.9394     1.8435 H      1 <0>       0.1300
   32 H32      -0.5248    -8.5121     1.8016 H      1 <0>       0.1300
   33 H33      -0.1973    -6.9119    -4.4769 H      1 <0>       0.1900
   34 H34       1.3239    -3.4636    -0.4891 H      1 <0>       0.1400
   35 H35       1.6604    -2.1827     1.5842 H      1 <0>       0.1300
   36 H36       0.3994    -0.1061     1.9705 H      1 <0>       0.1300
@<TRIPOS>BOND
   1    1    2 1
   2    1   24 1
   3    2   23 ar
   4    2    3 ar
   5    3    4 ar
   6    3   25 1
   7    4    5 1
   8    4   21 ar
   9    5    6 1
  10    5   26 1
  11    6   19 ar
  12    6    7 ar
  13    7    8 ar
  14    8    9 1
  15    8   17 ar
  16    9   10 1
  17    9   27 1
  18   10   16 ar
  19   10   11 ar
  20   11   12 ar
  21   11   28 1
  22   12   13 1
  23   12   14 ar
  24   13   29 1
  25   14   15 ar
  26   14   30 1
  27   15   16 ar
  28   15   31 1
  29   16   32 1
  30   17   18 ar
  31   18   19 ar
  32   18   33 1
  33   19   20 1
  34   21   22 ar
  35   21   34 1
  36   22   23 ar
  37   22   35 1
  38   23   36 1
