@<TRIPOS>MOLECULE
ZINC000095591603
58    62    1     0     0
SMALL
USER_CHARGES
@<TRIPOS>ATOM
1      C1     -0.9031   -1.9807    2.5262 C.3      1 ZINC000095591603   -0.1100
2      C2     -0.9794   -1.5254    1.0917 C.ar     1 ZINC000095591603    0.2400
3      C3     -0.2111   -2.1401    0.1227 C.ar     1 ZINC000095591603   -0.3400
4      C4     -0.3124   -1.6868   -1.1947 C.ar     1 ZINC000095591603    0.4700
5      N5      0.4394   -2.2741   -2.2002 N.pl3    1 ZINC000095591603   -0.6500
6      C6      0.3558   -1.7892   -3.5107 C.ar     1 ZINC000095591603    0.1500
7      C7      0.1809   -0.4303   -3.7386 C.ar     1 ZINC000095591603   -0.0900
8      C8      0.0989    0.0479   -5.0310 C.ar     1 ZINC000095591603   -0.1200
9      C9      0.1910   -0.8299   -6.1033 C.ar     1 ZINC000095591603    0.1200
10     N10     0.1074   -0.3447   -7.4144 N.am     1 ZINC000095591603   -0.6700
11     C11    -0.5117   -1.0733   -8.3643 C.2      1 ZINC000095591603    0.5600
12     O12    -0.9479   -2.1765   -8.0966 O.2      1 ZINC000095591603   -0.5200
13     C13    -0.6602   -0.5326   -9.7287 C.ar     1 ZINC000095591603   -0.1600
14     C14    -0.1541    0.7330  -10.0395 C.ar     1 ZINC000095591603   -0.0600
15     C15    -0.2938    1.2344  -11.3135 C.ar     1 ZINC000095591603   -0.1600
16     C16    -0.9382    0.4828  -12.2922 C.ar     1 ZINC000095591603    0.1900
17     N17    -1.0774    0.9925  -13.5795 N.pl3    1 ZINC000095591603   -0.6600
18     C18    -0.0404    1.7106  -14.1573 C.ar     1 ZINC000095591603    0.2500
19     C19    -0.2209    2.3969  -15.3818 C.ar     1 ZINC000095591603   -0.1400
20     C20    -1.4503    2.3770  -16.0549 C.ar     1 ZINC000095591603   -0.0900
21     C21    -1.5850    3.0505  -17.2316 C.ar     1 ZINC000095591603   -0.1200
22     C22    -0.5158    3.7586  -17.7748 C.ar     1 ZINC000095591603   -0.0900
23     C23     0.6913    3.7983  -17.1468 C.ar     1 ZINC000095591603   -0.1000
24     C24     0.8677    3.1159  -15.9306 C.ar     1 ZINC000095591603    0.1600
25     N25     2.0430    3.1387  -15.2922 N.ar     1 ZINC000095591603   -0.5100
26     C26     2.2226    2.5066  -14.1556 C.ar     1 ZINC000095591603    0.1700
27     C27     1.2039    1.7836  -13.5505 C.ar     1 ZINC000095591603   -0.2600
28     C28    -1.4432   -0.7778  -11.9859 C.ar     1 ZINC000095591603   -0.1600
29     C29    -1.3021   -1.2871  -10.7152 C.ar     1 ZINC000095591603   -0.0200
30     C30     0.3664   -2.1886   -5.8755 C.ar     1 ZINC000095591603   -0.1000
31     C31     0.4536   -2.6662   -4.5833 C.ar     1 ZINC000095591603   -0.1300
32     N32    -1.1407   -0.6843   -1.4699 N.ar     1 ZINC000095591603   -0.6200
33     C33    -1.8606   -0.1215   -0.5110 C.ar     1 ZINC000095591603    0.6000
34     N34    -2.7139    0.9201   -0.8309 N.pl3    1 ZINC000095591603   -0.8200
35     N35    -1.7885   -0.5346    0.7456 N.ar     1 ZINC000095591603   -0.6000
36     H36    -1.6384   -2.7669    2.6975 H        1 ZINC000095591603    0.0900
37     H37     0.0955   -2.3659    2.7325 H        1 ZINC000095591603    0.0800
38     H38    -1.1112   -1.1386    3.1862 H        1 ZINC000095591603    0.0800
39     H39     0.4533   -2.9525    0.3777 H        1 ZINC000095591603    0.1400
40     H40     1.0234   -3.0211   -1.9958 H        1 ZINC000095591603    0.4200
41     H41     0.1086    0.2522   -2.9047 H        1 ZINC000095591603    0.1400
42     H42    -0.0371    1.1045   -5.2082 H        1 ZINC000095591603    0.1300
43     H43     0.4951    0.5156   -7.6388 H        1 ZINC000095591603    0.4100
44     H44     0.3456    1.3167   -9.2806 H        1 ZINC000095591603    0.1300
45     H45     0.0966    2.2122  -11.5541 H        1 ZINC000095591603    0.1400
46     H46    -1.8995    0.8457  -14.0730 H        1 ZINC000095591603    0.4200
47     H47    -2.2860    1.8305  -15.6432 H        1 ZINC000095591603    0.1200
48     H48    -2.5325    3.0348  -17.7497 H        1 ZINC000095591603    0.1300
49     H49    -0.6463    4.2843  -18.7092 H        1 ZINC000095591603    0.1300
50     H50     1.5105    4.3518  -17.5815 H        1 ZINC000095591603    0.1400
51     H51     3.1892    2.5533  -13.6762 H        1 ZINC000095591603    0.1600
52     H52     1.3820    1.2739  -12.6151 H        1 ZINC000095591603    0.1500
53     H53    -1.9426   -1.3585  -12.7473 H        1 ZINC000095591603    0.1400
54     H54    -1.6941   -2.2651  -10.4781 H        1 ZINC000095591603    0.1400
55     H55     0.4383   -2.8710   -6.7095 H        1 ZINC000095591603    0.1400
56     H56     0.5903   -3.7228   -4.4061 H        1 ZINC000095591603    0.1300
57     H57    -2.7793    1.2293   -1.7480 H        1 ZINC000095591603    0.4100
58     H58    -3.2467    1.3409   -0.1381 H        1 ZINC000095591603    0.4200
@<TRIPOS>BOND
1     1     2     1
2     1     36    1
3     1     37    1
4     1     38    1
5     2     35    ar
6     2     3     ar
7     3     4     ar
8     3     39    1
9     4     5     1
10    4     32    ar
11    5     6     1
12    5     40    1
13    6     31    ar
14    6     7     ar
15    7     8     ar
16    7     41    1
17    8     9     ar
18    8     42    1
19    9     10    1
20    9     30    ar
21    10    11    am
22    10    43    1
23    11    12    2
24    11    13    1
25    13    29    ar
26    13    14    ar
27    14    15    ar
28    14    44    1
29    15    16    ar
30    15    45    1
31    16    17    1
32    16    28    ar
33    17    18    1
34    17    46    1
35    18    27    ar
36    18    19    ar
37    19    24    ar
38    19    20    ar
39    20    21    ar
40    20    47    1
41    21    22    ar
42    21    48    1
43    22    23    ar
44    22    49    1
45    23    24    ar
46    23    50    1
47    24    25    ar
48    25    26    ar
49    26    27    ar
50    26    51    1
51    27    52    1
52    28    29    ar
53    28    53    1
54    29    54    1
55    30    31    ar
56    30    55    1
57    31    56    1
58    32    33    ar
59    33    34    1
60    33    35    ar
61    34    57    1
62    34    58    1
@<TRIPOS>SUBSTRUCTURE
1   ZINC000095591603 1     RESIDUE    1   A     ZIN   1
