@<TRIPOS>MOLECULE
ZINC000008830553
23    24    1     0     0
SMALL
USER_CHARGES
@<TRIPOS>ATOM
1      C1     -0.0178    1.4608    0.0101 C.3      1 ZINC000008830553    0.0800
2      N2      0.0021   -0.0041    0.0020 N.pl3    1 ZINC000008830553   -0.5900
3      C3      1.2806   -0.7192   -0.0140 C.3      1 ZINC000008830553    0.1000
4      C4     -1.1830   -0.7099    0.0095 C.2      1 ZINC000008830553    0.5700
5      N5     -1.2808   -2.0158    0.0092 N.2      1 ZINC000008830553   -0.5200
6      C6     -2.5918   -2.3755    0.0183 C.ar     1 ZINC000008830553    0.1400
7      C7     -3.2484   -3.6092    0.0216 C.ar     1 ZINC000008830553   -0.0200
8      Br8    -2.2501   -5.2152    0.0137 Br       1 ZINC000008830553    0.0100
9      C9     -4.6264   -3.6516    0.0311 C.ar     1 ZINC000008830553   -0.0500
10     Br10   -5.5145   -5.3211    0.0356 Br       1 ZINC000008830553    0.0200
11     C11    -5.3665   -2.4773    0.0379 C.ar     1 ZINC000008830553   -0.0500
12     Br12   -7.2558   -2.5572    0.0515 Br       1 ZINC000008830553    0.0200
13     C13    -4.7313   -1.2506    0.0352 C.ar     1 ZINC000008830553   -0.0300
14     Br14   -5.7486    0.3434    0.0451 Br       1 ZINC000008830553   -0.0100
15     C15    -3.3454   -1.1907    0.0247 C.ar     1 ZINC000008830553    0.0800
16     N16    -2.4288   -0.1511    0.0244 N.pl3    1 ZINC000008830553   -0.6100
17     H17     1.0048    1.8381    0.0023 H        1 ZINC000008830553    0.1000
18     H18    -0.5450    1.8219   -0.8730 H        1 ZINC000008830553    0.0600
19     H19    -0.5280    1.8123    0.9069 H        1 ZINC000008830553    0.0600
20     H20     1.6074   -0.9021    1.0096 H        1 ZINC000008830553    0.0600
21     H21     1.1583   -1.6705   -0.5318 H        1 ZINC000008830553    0.0900
22     H22     2.0272   -0.1171   -0.5318 H        1 ZINC000008830553    0.0800
23     H23    -2.6341    0.7969    0.0323 H        1 ZINC000008830553    0.4300
@<TRIPOS>BOND
1     1     2     1
2     1     17    1
3     1     18    1
4     1     19    1
5     2     3     1
6     2     4     1
7     3     20    1
8     3     21    1
9     3     22    1
10    4     16    1
11    4     5     2
12    5     6     1
13    6     15    ar
14    6     7     ar
15    7     8     1
16    7     9     ar
17    9     10    1
18    9     11    ar
19    11    12    1
20    11    13    ar
21    13    14    1
22    13    15    ar
23    15    16    1
24    16    23    1
@<TRIPOS>SUBSTRUCTURE
1   ZINC000008830553 1     RESIDUE    1   A     ZIN   1
