@<TRIPOS>MOLECULE
ZINC000001530886
68    73    1     0     0
SMALL
USER_CHARGES
@<TRIPOS>ATOM
1      C1     -1.3678    0.1344    4.9220 C.3      1 ZINC000001530886   -0.1500
2      C2     -1.0194   -1.2898    4.4846 C.3      1 ZINC000001530886   -0.1200
3      C3     -2.2969   -2.0230    4.0707 C.3      1 ZINC000001530886   -0.0500
4      C4     -1.9424   -3.3860    3.5343 C.2      1 ZINC000001530886    0.3000
5      N5     -1.5807   -3.6336    2.3087 N.2      1 ZINC000001530886   -0.4900
6      C6     -1.3346   -4.9598    2.1636 C.ar     1 ZINC000001530886    0.0700
7      C7     -0.9262   -5.7494    1.0832 C.ar     1 ZINC000001530886   -0.0300
8      C8     -0.6715   -5.1142   -0.2595 C.3      1 ZINC000001530886   -0.1100
9      C9     -0.7579   -7.0923    1.2437 C.ar     1 ZINC000001530886   -0.1300
10     C10    -0.9912   -7.6949    2.4861 C.ar     1 ZINC000001530886   -0.0200
11     C11    -0.8047   -9.1523    2.6455 C.2      1 ZINC000001530886    0.3400
12     N12    -1.3333   -9.8803    3.5990 N.2      1 ZINC000001530886   -0.4800
13     C13    -0.9581  -11.1736    3.4456 C.ar     1 ZINC000001530886    0.0500
14     C14    -1.2274  -12.3432    4.1636 C.ar     1 ZINC000001530886   -0.0600
15     C15    -0.6862  -13.5389    3.7499 C.ar     1 ZINC000001530886   -0.1300
16     C16     0.1254  -13.5939    2.6259 C.ar     1 ZINC000001530886   -0.1000
17     C17     0.4019  -12.4504    1.9062 C.ar     1 ZINC000001530886   -0.1100
18     C18    -0.1351  -11.2355    2.3068 C.ar     1 ZINC000001530886    0.0500
19     N19    -0.0587   -9.9461    1.8161 N.pl3    1 ZINC000001530886   -0.4900
20     C20     0.6851   -9.5092    0.6319 C.3      1 ZINC000001530886    0.0700
21     C21    -1.3983   -6.9235    3.5722 C.ar     1 ZINC000001530886   -0.0500
22     C22    -1.5703   -5.5586    3.4148 C.ar     1 ZINC000001530886    0.0500
23     N23    -1.9483   -4.5346    4.2618 N.pl3    1 ZINC000001530886   -0.4700
24     C24    -2.2936   -4.6630    5.6797 C.3      1 ZINC000001530886    0.1600
25     C25    -3.7453   -5.0456    5.8106 C.ar     1 ZINC000001530886   -0.1400
26     C26    -4.7158   -4.0607    5.8569 C.ar     1 ZINC000001530886   -0.1000
27     C27    -6.0467   -4.4048    5.9767 C.ar     1 ZINC000001530886   -0.1100
28     C28    -6.4127   -5.7484    6.0506 C.ar     1 ZINC000001530886    0.0000
29     C29    -7.8400   -6.1245    6.1788 C.ar     1 ZINC000001530886   -0.0500
30     C30    -8.6207   -5.5749    7.1910 C.ar     1 ZINC000001530886   -0.1100
31     C31    -9.9507   -5.9276    7.3068 C.ar     1 ZINC000001530886   -0.1400
32     C32   -10.5180   -6.8284    6.4206 C.ar     1 ZINC000001530886   -0.1300
33     C33    -9.7617   -7.3847    5.4103 C.ar     1 ZINC000001530886   -0.1000
34     C34    -8.4165   -7.0360    5.2735 C.ar     1 ZINC000001530886   -0.1000
35     C35    -7.6035   -7.6261    4.1965 C.2      1 ZINC000001530886    0.5200
36     O36    -6.9887   -6.9007    3.4268 O.co2    1 ZINC000001530886   -0.6700
37     O37    -7.5429   -8.8414    4.0716 O.co2    1 ZINC000001530886   -0.6900
38     C38    -5.4299   -6.7367    6.0029 C.ar     1 ZINC000001530886   -0.0800
39     C39    -4.1026   -6.3803    5.8782 C.ar     1 ZINC000001530886   -0.0900
40     H40    -0.4577    0.6568    5.2169 H        1 ZINC000001530886    0.0600
41     H41    -1.8386    0.6640    4.0938 H        1 ZINC000001530886    0.0600
42     H42    -2.0552    0.0970    5.7671 H        1 ZINC000001530886    0.0600
43     H43    -0.3319   -1.2524    3.6396 H        1 ZINC000001530886    0.0700
44     H44    -0.5486   -1.8193    5.3128 H        1 ZINC000001530886    0.0600
45     H45    -2.9500   -2.1319    4.9366 H        1 ZINC000001530886    0.0900
46     H46    -2.8102   -1.4507    3.2981 H        1 ZINC000001530886    0.1000
47     H47     0.3724   -4.8073   -0.3241 H        1 ZINC000001530886    0.0700
48     H48    -0.8882   -5.8339   -1.0489 H        1 ZINC000001530886    0.0600
49     H49    -1.3146   -4.2419   -0.3765 H        1 ZINC000001530886    0.0700
50     H50    -0.4425   -7.6966    0.4060 H        1 ZINC000001530886    0.1300
51     H51    -1.8577  -12.3080    5.0399 H        1 ZINC000001530886    0.1300
52     H52    -0.8946  -14.4417    4.3049 H        1 ZINC000001530886    0.1300
53     H53     0.5439  -14.5389    2.3125 H        1 ZINC000001530886    0.1300
54     H54     1.0345  -12.5006    1.0323 H        1 ZINC000001530886    0.1200
55     H55     0.0104   -9.4586   -0.2227 H        1 ZINC000001530886    0.0800
56     H56     1.1139   -8.5240    0.8152 H        1 ZINC000001530886    0.0900
57     H57     1.4843  -10.2201    0.4222 H        1 ZINC000001530886    0.0800
58     H58    -1.5789   -7.3870    4.5308 H        1 ZINC000001530886    0.1300
59     H59    -1.6722   -5.4333    6.1367 H        1 ZINC000001530886    0.1000
60     H60    -2.1217   -3.7116    6.1831 H        1 ZINC000001530886    0.1000
61     H61    -4.4311   -3.0205    5.7996 H        1 ZINC000001530886    0.1200
62     H62    -6.8034   -3.6351    6.0134 H        1 ZINC000001530886    0.1200
63     H63    -8.1861   -4.8723    7.8866 H        1 ZINC000001530886    0.1200
64     H64   -10.5527   -5.4984    8.0940 H        1 ZINC000001530886    0.1100
65     H65   -11.5592   -7.0972    6.5217 H        1 ZINC000001530886    0.1200
66     H66   -10.2107   -8.0865    4.7230 H        1 ZINC000001530886    0.1200
67     H67    -5.7073   -7.7789    6.0601 H        1 ZINC000001530886    0.1200
68     H68    -3.3406   -7.1448    5.8408 H        1 ZINC000001530886    0.1200
@<TRIPOS>BOND
1     1     2     1
2     1     40    1
3     1     41    1
4     1     42    1
5     2     3     1
6     2     43    1
7     2     44    1
8     3     4     1
9     3     45    1
10    3     46    1
11    4     23    1
12    4     5     2
13    5     6     1
14    6     22    ar
15    6     7     ar
16    7     8     1
17    7     9     ar
18    8     47    1
19    8     48    1
20    8     49    1
21    9     10    ar
22    9     50    1
23    10    11    1
24    10    21    ar
25    11    19    1
26    11    12    2
27    12    13    1
28    13    18    ar
29    13    14    ar
30    14    15    ar
31    14    51    1
32    15    16    ar
33    15    52    1
34    16    17    ar
35    16    53    1
36    17    18    ar
37    17    54    1
38    18    19    1
39    19    20    1
40    20    55    1
41    20    56    1
42    20    57    1
43    21    22    ar
44    21    58    1
45    22    23    1
46    23    24    1
47    24    25    1
48    24    59    1
49    24    60    1
50    25    39    ar
51    25    26    ar
52    26    27    ar
53    26    61    1
54    27    28    ar
55    27    62    1
56    28    29    1
57    28    38    ar
58    29    34    ar
59    29    30    ar
60    30    31    ar
61    30    63    1
62    31    32    ar
63    31    64    1
64    32    33    ar
65    32    65    1
66    33    34    ar
67    33    66    1
68    34    35    1
69    35    36    ar
70    35    37    ar
71    38    39    ar
72    38    67    1
73    39    68    1
@<TRIPOS>SUBSTRUCTURE
1   ZINC000001530886 1     RESIDUE    1   A     ZIN   1
