@<TRIPOS>MOLECULE
ZINC000000517261
34    36    1     0     0
SMALL
USER_CHARGES
@<TRIPOS>ATOM
1      C1     -0.5362    0.6234   -2.4197 C.3      1 ZINC000000517261    0.0200
2      O2     -0.3443   -0.5391   -1.6110 O.3      1 ZINC000000517261   -0.3100
3      C3     -1.3764   -0.9087   -0.8063 C.ar     1 ZINC000000517261    0.1000
4      C4     -2.5456   -0.1731   -0.8010 C.ar     1 ZINC000000517261   -0.1700
5      C5     -3.6049   -0.5563    0.0273 C.ar     1 ZINC000000517261    0.0000
6      C6     -4.8556    0.2247    0.0368 C.2      1 ZINC000000517261    0.1200
7      C7     -6.0430   -0.4372   -0.0543 C.2      1 ZINC000000517261   -0.0500
8      O8     -6.0661   -1.7944   -0.1515 O.3      1 ZINC000000517261   -0.4600
9      C9     -7.2554    0.3001   -0.0465 C.2      1 ZINC000000517261    0.4000
10     O10    -8.3379   -0.2586   -0.1259 O.2      1 ZINC000000517261   -0.5000
11     C11    -7.1569    1.7644    0.0616 C.ar     1 ZINC000000517261   -0.3700
12     C12    -8.3025    2.5705    0.0773 C.ar     1 ZINC000000517261    0.2200
13     O13    -9.5350    2.0088   -0.0078 O.3      1 ZINC000000517261   -0.4900
14     C14    -8.1681    3.9427    0.1806 C.ar     1 ZINC000000517261   -0.2900
15     C15    -6.9043    4.5164    0.2676 C.ar     1 ZINC000000517261    0.3300
16     O16    -6.7839    5.8648    0.3687 O.3      1 ZINC000000517261   -0.6900
17     C17    -5.7663    3.7249    0.2527 C.ar     1 ZINC000000517261   -0.2900
18     C18    -5.8803    2.3471    0.1503 C.ar     1 ZINC000000517261    0.2000
19     O19    -4.7821    1.5628    0.1404 O.3      1 ZINC000000517261   -0.2100
20     C20    -3.4756   -1.6814    0.8457 C.ar     1 ZINC000000517261   -0.0900
21     C21    -2.3055   -2.4106    0.8349 C.ar     1 ZINC000000517261   -0.1100
22     C22    -1.2565   -2.0332    0.0089 C.ar     1 ZINC000000517261    0.0800
23     O23    -0.1057   -2.7557    0.0019 O.3      1 ZINC000000517261   -0.4900
24     H24     0.3606    0.8064   -3.0115 H        1 ZINC000000517261    0.1000
25     H25    -1.3851    0.4668   -3.0853 H        1 ZINC000000517261    0.0600
26     H26    -0.7307    1.4835   -1.7791 H        1 ZINC000000517261    0.0600
27     H27    -2.6412    0.6960   -1.4349 H        1 ZINC000000517261    0.1400
28     H28    -6.9555   -2.1694   -0.2111 H        1 ZINC000000517261    0.4000
29     H29    -9.9243    1.7832    0.8481 H        1 ZINC000000517261    0.3800
30     H30    -9.0468    4.5705    0.1933 H        1 ZINC000000517261    0.1200
31     H31    -4.7902    4.1820    0.3210 H        1 ZINC000000517261    0.1200
32     H32    -4.2919   -1.9797    1.4868 H        1 ZINC000000517261    0.1400
33     H33    -2.2067   -3.2801    1.4679 H        1 ZINC000000517261    0.1400
34     H34    -0.0966   -3.4747   -0.6446 H        1 ZINC000000517261    0.3900
@<TRIPOS>BOND
1     1     2     1
2     1     24    1
3     1     25    1
4     1     26    1
5     2     3     1
6     3     22    ar
7     3     4     ar
8     4     5     ar
9     4     27    1
10    5     6     1
11    5     20    ar
12    6     19    1
13    6     7     2
14    7     8     1
15    7     9     1
16    8     28    1
17    9     10    2
18    9     11    1
19    11    18    ar
20    11    12    ar
21    12    13    1
22    12    14    ar
23    13    29    1
24    14    15    ar
25    14    30    1
26    15    16    1
27    15    17    ar
28    17    18    ar
29    17    31    1
30    18    19    1
31    20    21    ar
32    20    32    1
33    21    22    ar
34    21    33    1
35    22    23    1
36    23    34    1
@<TRIPOS>SUBSTRUCTURE
1   ZINC000000517261 1     RESIDUE    1   A     ZIN   1
