@<TRIPOS>MOLECULE
ZINC000095590722
46    48    1     0     0
SMALL
USER_CHARGES
@<TRIPOS>ATOM
1      C1     -0.0225    1.8097    0.0120 C.3      1 ZINC000095590722   -0.6700
2      S2      0.0021   -0.0041    0.0020 S.o2     1 ZINC000095590722    2.6100
3      O3      0.8448   -0.4970    1.0346 O.2      1 ZINC000095590722   -0.9600
4      O4     -1.3093   -0.5195   -0.1821 O.2      1 ZINC000095590722   -0.9600
5      N5      0.7961   -0.3989   -1.3965 N.am     1 ZINC000095590722   -1.1200
6      C6      2.2072   -0.0423   -1.5633 C.3      1 ZINC000095590722    0.1100
7      C7      2.7954   -0.8247   -2.7393 C.3      1 ZINC000095590722   -0.1200
8      C8      4.2691   -0.4524   -2.9135 C.3      1 ZINC000095590722   -0.0900
9      C9      5.0627   -0.9179   -1.6895 C.3      1 ZINC000095590722   -0.1200
10     C10     6.5447   -0.5974   -1.8964 C.3      1 ZINC000095590722    0.0600
11     N11     7.0299   -1.2772   -3.1042 N.3      1 ZINC000095590722   -0.4700
12     C12     8.3970   -1.1150   -3.2495 C.ar     1 ZINC000095590722    0.4200
13     C13     9.0733   -1.6823   -4.3477 C.ar     1 ZINC000095590722   -0.2700
14     S14     8.4967   -2.6428   -5.7016 S.3      1 ZINC000095590722    0.1900
15     C15    10.1165   -2.7623   -6.3679 C.2      1 ZINC000095590722   -0.2000
16     C16    10.4630   -3.4792   -7.6071 C.2      1 ZINC000095590722    0.5900
17     N17     9.5016   -4.1045   -8.3151 N.am     1 ZINC000095590722   -0.8400
18     O18    11.6164   -3.5069   -7.9914 O.2      1 ZINC000095590722   -0.5100
19     C19    10.9936   -2.1110   -5.5929 C.2      1 ZINC000095590722   -0.0400
20     C20    10.4541   -1.4951   -4.4573 C.ar     1 ZINC000095590722    0.1800
21     N21    11.0709   -0.7721   -3.4927 N.ar     1 ZINC000095590722   -0.5000
22     C22    10.3982   -0.2655   -2.4918 C.ar     1 ZINC000095590722    0.3300
23     N23     9.0917   -0.4186   -2.3606 N.ar     1 ZINC000095590722   -0.5500
24     C24     6.3148   -0.8114   -4.2992 C.3      1 ZINC000095590722    0.0600
25     C25     4.8259   -1.1384   -4.1641 C.3      1 ZINC000095590722   -0.1100
26     H26     1.0001    2.1870    0.0043 H        1 ZINC000095590722    0.1300
27     H27    -0.5497    2.1708   -0.8711 H        1 ZINC000095590722    0.1300
28     H28    -0.5327    2.1613    0.9088 H        1 ZINC000095590722    0.1300
29     H29     0.3269   -0.8662   -2.1053 H        1 ZINC000095590722    0.4200
30     H30     2.2912    1.0265   -1.7598 H        1 ZINC000095590722    0.0600
31     H31     2.7542   -0.2885   -0.6532 H        1 ZINC000095590722    0.0800
32     H32     2.7115   -1.8936   -2.5429 H        1 ZINC000095590722    0.0800
33     H33     2.2484   -0.5785   -3.6494 H        1 ZINC000095590722    0.0700
34     H34     4.3617    0.6285   -3.0192 H        1 ZINC000095590722    0.0800
35     H35     4.6989   -0.4006   -0.8017 H        1 ZINC000095590722    0.0800
36     H36     4.9372   -1.9931   -1.5619 H        1 ZINC000095590722    0.0800
37     H37     6.6710    0.4793   -2.0101 H        1 ZINC000095590722    0.0600
38     H38     7.1145   -0.9405   -1.0328 H        1 ZINC000095590722    0.0900
39     H39     8.5816   -4.0824   -8.0086 H        1 ZINC000095590722    0.4000
40     H40     9.7297   -4.5767   -9.1312 H        1 ZINC000095590722    0.4100
41     H41    12.0466   -2.0640   -5.8284 H        1 ZINC000095590722    0.1700
42     H42    10.9309    0.3046   -1.7450 H        1 ZINC000095590722    0.2100
43     H43     6.4421    0.2662   -4.4017 H        1 ZINC000095590722    0.0600
44     H44     6.7175   -1.3101   -5.1809 H        1 ZINC000095590722    0.0800
45     H45     4.6967   -2.2171   -4.0754 H        1 ZINC000095590722    0.0800
46     H46     4.2929   -0.7786   -5.0442 H        1 ZINC000095590722    0.0800
@<TRIPOS>BOND
1     1     2     1
2     1     26    1
3     1     27    1
4     1     28    1
5     2     3     2
6     2     4     2
7     2     5     am
8     5     6     1
9     5     29    1
10    6     7     1
11    6     30    1
12    6     31    1
13    7     8     1
14    7     32    1
15    7     33    1
16    8     25    1
17    8     9     1
18    8     34    1
19    9     10    1
20    9     35    1
21    9     36    1
22    10    11    1
23    10    37    1
24    10    38    1
25    11    12    1
26    11    24    1
27    12    23    ar
28    12    13    ar
29    13    20    ar
30    13    14    1
31    14    15    1
32    15    16    1
33    15    19    2
34    16    17    am
35    16    18    2
36    17    39    1
37    17    40    1
38    19    20    1
39    19    41    1
40    20    21    ar
41    21    22    ar
42    22    23    ar
43    22    42    1
44    24    25    1
45    24    43    1
46    24    44    1
47    25    45    1
48    25    46    1
@<TRIPOS>SUBSTRUCTURE
1   ZINC000095590722 1     RESIDUE    1   A     ZIN   1
