@<TRIPOS>MOLECULE
ZINC000000035843
  29   31    0    0    0
SMALL
USER_CHARGES
NO_NAME
@<TRIPOS>ATOM
    1 O1        0.0022    -0.0040     0.0191 O.co2  1 <0>      -0.6700
    2 C2       -0.0145     1.2186     0.0087 C.2    1 <0>       0.5300
    3 O3        1.0359     1.8443    -0.0150 O.co2  1 <0>      -0.6700
    4 C4       -1.3030     1.9394     0.0188 C.ar   1 <0>      -0.0600
    5 C5       -1.3590     3.3976     0.1298 C.ar   1 <0>      -0.0800
    6 C6       -0.1960     4.1685     0.2303 C.ar   1 <0>      -0.0700
    7 C7       -0.2936     5.5247     0.3316 C.ar   1 <0>      -0.1500
    8 C8       -1.5373     6.1528     0.3362 C.ar   1 <0>      -0.1000
    9 C9       -2.6883     5.4333     0.2401 C.ar   1 <0>      -0.1100
   10 C10      -2.6278     4.0309     0.1339 C.ar   1 <0>       0.1200
   11 N11      -3.7385     3.2996     0.0377 N.ar   1 <0>      -0.4800
   12 C12      -3.7117     1.9877    -0.0631 C.ar   1 <0>       0.1900
   13 C13      -4.9949     1.2517    -0.1663 C.ar   1 <0>      -0.0300
   14 C14      -4.9977    -0.1384    -0.2684 C.ar   1 <0>      -0.0800
   15 C15      -6.1949    -0.8186    -0.3642 C.ar   1 <0>      -0.1200
   16 C16      -7.3906    -0.1238    -0.3596 C.ar   1 <0>      -0.0900
   17 C17      -7.3945     1.2569    -0.2589 C.ar   1 <0>      -0.1000
   18 Br18     -9.0344     2.1985    -0.2540 Br     1 <0>      -0.0600
   19 C19      -6.2031     1.9472    -0.1558 C.ar   1 <0>      -0.0500
   20 C20      -2.5112     1.2615    -0.0826 C.ar   1 <0>      -0.1500
   21 H21       0.7733     3.6922     0.2281 H      1 <0>       0.1700
   22 H22       0.6044     6.1196     0.4096 H      1 <0>       0.1200
   23 H23      -1.5888     7.2285     0.4179 H      1 <0>       0.1200
   24 H24      -3.6442     5.9360     0.2455 H      1 <0>       0.1300
   25 H25      -4.0647    -0.6822    -0.2728 H      1 <0>       0.1400
   26 H26      -6.1978    -1.8957    -0.4434 H      1 <0>       0.1400
   27 H27      -8.3249    -0.6603    -0.4352 H      1 <0>       0.1300
   28 H28      -6.2067     3.0243    -0.0772 H      1 <0>       0.1400
   29 H29      -2.5267     0.1848    -0.1664 H      1 <0>       0.1400
@<TRIPOS>BOND
   1    1    2 ar
   2    2    3 ar
   3    2    4 1
   4    4   20 ar
   5    4    5 ar
   6    5   10 ar
   7    5    6 ar
   8    6    7 ar
   9    6   21 1
  10    7    8 ar
  11    7   22 1
  12    8    9 ar
  13    8   23 1
  14    9   10 ar
  15    9   24 1
  16   10   11 ar
  17   11   12 ar
  18   12   13 1
  19   12   20 ar
  20   13   19 ar
  21   13   14 ar
  22   14   15 ar
  23   14   25 1
  24   15   16 ar
  25   15   26 1
  26   16   17 ar
  27   16   27 1
  28   17   18 1
  29   17   19 ar
  30   19   28 1
  31   20   29 1
