@<TRIPOS>MOLECULE
ZINC000019144226
  49   50    0    0    0
SMALL
USER_CHARGES
NO_NAME
@<TRIPOS>ATOM
    1 C1        0.0823     1.4510    -0.2163 C.3    1 <0>      -0.1900
    2 C2        0.0237    -0.0664    -0.0289 C.3    1 <0>      -0.0200
    3 N3       -1.3740    -0.4850     0.1418 N.4    1 <0>      -0.3900
    4 H4       -1.7925     0.0392     0.8955 H      1 <0>       0.4200
    5 C5       -2.1159    -0.2330    -1.1009 C.3    1 <0>      -0.0200
    6 C6       -3.5996    -0.5332    -0.8788 C.3    1 <0>      -0.1900
    7 C7       -1.4206    -1.9189     0.4577 C.3    1 <0>      -0.0100
    8 C8       -0.7562    -2.1642     1.8139 C.3    1 <0>      -0.1500
    9 C9       -0.8047    -3.6576     2.1429 C.3    1 <0>      -0.1200
   10 C10      -0.1402    -3.9029     3.4991 C.3    1 <0>       0.1500
   11 H11      -0.6138    -3.2758     4.2544 H      1 <0>       0.0900
   12 C12      -0.2985    -5.3747     3.8858 C.3    1 <0>      -0.1800
   13 N13       1.2841    -3.5713     3.4121 N.pl3  1 <0>      -0.7300
   14 C14       1.9824    -3.2088     4.5537 C.ar   1 <0>       0.2700
   15 C15       3.3571    -2.8784     4.4943 C.ar   1 <0>      -0.1500
   16 C16       4.0620    -2.9050     3.2828 C.ar   1 <0>      -0.0800
   17 C17       5.3847    -2.5801     3.2656 C.ar   1 <0>      -0.1200
   18 C18       6.0470    -2.2214     4.4386 C.ar   1 <0>      -0.0100
   19 Cl19      7.7333    -1.8137     4.3776 Cl     1 <0>      -0.0500
   20 C20       5.3909    -2.1856     5.6322 C.ar   1 <0>      -0.0900
   21 C21       4.0257    -2.5142     5.6876 C.ar   1 <0>       0.1800
   22 N22       3.3573    -2.4867     6.8462 N.ar   1 <0>      -0.5100
   23 C23       2.0818    -2.7908     6.9136 C.ar   1 <0>       0.1800
   24 C24       1.3546    -3.1530     5.7885 C.ar   1 <0>      -0.2700
   25 H25       1.1228     1.7753    -0.2311 H      1 <0>       0.1100
   26 H26      -0.3953     1.7194    -1.1586 H      1 <0>       0.0800
   27 H27      -0.4388     1.9392     0.6072 H      1 <0>       0.0800
   28 H28       0.4455    -0.5574    -0.9059 H      1 <0>       0.1300
   29 H29       0.5971    -0.3457     0.8550 H      1 <0>       0.1300
   30 H30      -1.9958     0.8109    -1.3904 H      1 <0>       0.1300
   31 H31      -1.7294    -0.8761    -1.8915 H      1 <0>       0.1300
   32 H32      -3.7314    -1.6000    -0.6980 H      1 <0>       0.0800
   33 H33      -3.9590     0.0285    -0.0166 H      1 <0>       0.0800
   34 H34      -4.1656    -0.2421    -1.7637 H      1 <0>       0.1100
   35 H35      -2.4588    -2.2488     0.4968 H      1 <0>       0.1300
   36 H36      -0.8905    -2.4782    -0.3132 H      1 <0>       0.1300
   37 H37       0.2820    -1.8343     1.7748 H      1 <0>       0.0900
   38 H38      -1.2864    -1.6049     2.5847 H      1 <0>       0.0900
   39 H39      -1.8429    -3.9875     2.1820 H      1 <0>       0.0900
   40 H40      -0.2745    -4.2169     1.3721 H      1 <0>       0.0800
   41 H41       0.1749    -5.5495     4.8519 H      1 <0>       0.0700
   42 H42      -1.3582    -5.6215     3.9505 H      1 <0>       0.0700
   43 H43       0.1751    -6.0018     3.1304 H      1 <0>       0.0600
   44 H44       1.7386    -3.6053     2.5559 H      1 <0>       0.4000
   45 H45       3.5591    -3.1821     2.3681 H      1 <0>       0.1300
   46 H46       5.9270    -2.6009     2.3318 H      1 <0>       0.1400
   47 H47       5.9182    -1.9061     6.5323 H      1 <0>       0.1500
   48 H48       1.5836    -2.7546     7.8712 H      1 <0>       0.1600
   49 H49       0.3063    -3.3974     5.8756 H      1 <0>       0.1400
@<TRIPOS>BOND
   1    1    2 1
   2    1   25 1
   3    1   26 1
   4    1   27 1
   5    2    3 1
   6    2   28 1
   7    2   29 1
   8    3    4 1
   9    3    5 1
  10    3    7 1
  11    5    6 1
  12    5   30 1
  13    5   31 1
  14    6   32 1
  15    6   33 1
  16    6   34 1
  17    7    8 1
  18    7   35 1
  19    7   36 1
  20    8    9 1
  21    8   37 1
  22    8   38 1
  23    9   10 1
  24    9   39 1
  25    9   40 1
  26   10   11 1
  27   10   12 1
  28   10   13 1
  29   12   41 1
  30   12   42 1
  31   12   43 1
  32   13   14 1
  33   13   44 1
  34   14   24 ar
  35   14   15 ar
  36   15   21 ar
  37   15   16 ar
  38   16   17 ar
  39   16   45 1
  40   17   18 ar
  41   17   46 1
  42   18   19 1
  43   18   20 ar
  44   20   21 ar
  45   20   47 1
  46   21   22 ar
  47   22   23 ar
  48   23   24 ar
  49   23   48 1
  50   24   49 1
