@<TRIPOS>MOLECULE
ZINC000101094033
  32   35    0    0    0
SMALL
USER_CHARGES
NO_NAME
@<TRIPOS>ATOM
    1 O1        0.0021    -0.0041     0.0020 O.2    1 <0>       0.0800
    2 N2       -0.0144     1.2138     0.0087 N.2    1 <0>      -0.3000
    3 C3        1.1226     1.8911     0.0015 C.2    1 <0>      -0.1600
    4 C4        1.2775     3.2852     0.0132 C.2    1 <0>       0.2500
    5 C5        0.1518     4.2868     0.0369 C.3    1 <0>      -0.0300
    6 C6        0.3151     5.2409     1.2009 C.2    1 <0>       0.5300
    7 O7        0.3271     4.9466     2.3775 O.2    1 <0>      -0.4700
    8 N8        0.4449     6.4751     0.6856 N.am   1 <0>      -0.6500
    9 C9        0.3884     6.4741    -0.7085 C.ar   1 <0>       0.1500
   10 C10       0.4786     7.5200    -1.6243 C.ar   1 <0>      -0.1100
   11 C11       0.3919     7.2648    -2.9785 C.ar   1 <0>      -0.0500
   12 Br12      0.5148     8.6910    -4.2141 Br     1 <0>      -0.0200
   13 C13       0.2161     5.9711    -3.4362 C.ar   1 <0>      -0.1000
   14 C14       0.1262     4.9272    -2.5316 C.ar   1 <0>      -0.0400
   15 C15       0.2114     5.1795    -1.1812 C.ar   1 <0>      -0.1400
   16 N16       2.5792     3.5862     0.0008 N.pl3  1 <0>      -0.5300
   17 C17       3.3555     2.4406    -0.0195 C.ar   1 <0>       0.0700
   18 C18       4.7298     2.2317    -0.0377 C.ar   1 <0>      -0.1100
   19 C19       5.2315     0.9467    -0.0561 C.ar   1 <0>      -0.1000
   20 C20       4.3775    -0.1442    -0.0566 C.ar   1 <0>      -0.1200
   21 C21       3.0102     0.0446    -0.0387 C.ar   1 <0>      -0.0700
   22 C22       2.4941     1.3340    -0.0141 C.ar   1 <0>      -0.0700
   23 H23      -0.8104     3.7773     0.0902 H      1 <0>       0.1700
   24 H24       0.5641     7.2749     1.2214 H      1 <0>       0.4200
   25 H25       0.6162     8.5324    -1.2744 H      1 <0>       0.1400
   26 H26       0.1495     5.7761    -4.4963 H      1 <0>       0.1500
   27 H27      -0.0111     3.9159    -2.8850 H      1 <0>       0.1400
   28 H28       2.9337     4.4891     0.0051 H      1 <0>       0.4200
   29 H29       5.4044     3.0751    -0.0378 H      1 <0>       0.1300
   30 H30       6.3000     0.7897    -0.0705 H      1 <0>       0.1400
   31 H31       4.7827    -1.1452    -0.0714 H      1 <0>       0.1400
   32 H32       2.3449    -0.8061    -0.0395 H      1 <0>       0.1500
@<TRIPOS>BOND
   1    1    2 2
   2    2    3 1
   3    3   22 1
   4    3    4 2
   5    4    5 1
   6    4   16 1
   7    5   15 1
   8    5    6 1
   9    5   23 1
  10    6    7 2
  11    6    8 am
  12    8    9 1
  13    8   24 1
  14    9   15 ar
  15    9   10 ar
  16   10   11 ar
  17   10   25 1
  18   11   12 1
  19   11   13 ar
  20   13   14 ar
  21   13   26 1
  22   14   15 ar
  23   14   27 1
  24   16   17 1
  25   16   28 1
  26   17   22 ar
  27   17   18 ar
  28   18   19 ar
  29   18   29 1
  30   19   20 ar
  31   19   30 1
  32   20   21 ar
  33   20   31 1
  34   21   22 ar
  35   21   32 1
