@<TRIPOS>MOLECULE
ZINC000096170464
50    52    1     0     0
SMALL
USER_CHARGES
@<TRIPOS>ATOM
1      O1     -1.8540    0.6996   -1.7969 O.co2    1 ZINC000096170464   -0.6600
2      C2     -1.4926    1.7041   -1.1992 C.2      1 ZINC000096170464    0.5300
3      O3     -0.3840    2.1763   -1.4110 O.co2    1 ZINC000096170464   -0.6900
4      C4     -2.3936    2.3477   -0.2301 C.ar     1 ZINC000096170464   -0.1500
5      C5     -3.7080    1.8943   -0.0826 C.ar     1 ZINC000096170464   -0.0300
6      C6     -4.5464    2.5019    0.8270 C.ar     1 ZINC000096170464   -0.1200
7      I7     -6.5154    1.8206    1.0462 I        1 ZINC000096170464   -0.0500
8      C8     -4.0934    3.5612    1.5979 C.ar     1 ZINC000096170464   -0.0800
9      C9     -2.7986    4.0205    1.4634 C.ar     1 ZINC000096170464   -0.1300
10     C10    -1.9371    3.4179    0.5568 C.ar     1 ZINC000096170464    0.1700
11     N11    -0.6312    3.8796    0.4198 N.am     1 ZINC000096170464   -0.6100
12     C12    -0.3575    5.1880    0.5921 C.2      1 ZINC000096170464    0.5000
13     O13    -1.2351    5.9509    0.9364 O.2      1 ZINC000096170464   -0.5300
14     C14     1.0391    5.7030    0.3569 C.3      1 ZINC000096170464    0.0100
15     H15     1.3297    5.5069   -0.6752 H        1 ZINC000096170464    0.1800
16     C16     2.0101    4.9945    1.3036 C.3      1 ZINC000096170464   -0.1000
17     C17     1.5400    5.1649    2.7252 C.ar     1 ZINC000096170464   -0.1300
18     C18     1.9492    6.2608    3.4618 C.ar     1 ZINC000096170464   -0.1400
19     C19     1.5180    6.4171    4.7658 C.ar     1 ZINC000096170464   -0.1100
20     C20     0.6773    5.4778    5.3331 C.ar     1 ZINC000096170464   -0.1000
21     C21     0.2674    4.3824    4.5962 C.ar     1 ZINC000096170464   -0.1000
22     C22     0.6952    4.2283    3.2908 C.ar     1 ZINC000096170464   -0.0900
23     N23     1.0767    7.1496    0.6097 N.4      1 ZINC000096170464   -0.4900
24     H24     0.3659    7.6060    0.0579 H        1 ZINC000096170464    0.4300
25     H25     0.9063    7.3245    1.5887 H        1 ZINC000096170464    0.4300
26     C26     2.3971    7.6771    0.2406 C.3      1 ZINC000096170464    0.0400
27     C27     2.4303    9.1638    0.4850 C.ar     1 ZINC000096170464   -0.1600
28     C28     2.0515   10.0375   -0.5170 C.ar     1 ZINC000096170464   -0.0900
29     C29     2.0820   11.4012   -0.2929 C.ar     1 ZINC000096170464   -0.1100
30     C30     2.4909   11.8912    0.9333 C.ar     1 ZINC000096170464   -0.0900
31     C31     2.8688   11.0174    1.9356 C.ar     1 ZINC000096170464   -0.1200
32     C32     2.8342    9.6536    1.7129 C.ar     1 ZINC000096170464   -0.0900
33     H33    -4.0659    1.0693   -0.6808 H        1 ZINC000096170464    0.1400
34     H34    -4.7580    4.0305    2.3082 H        1 ZINC000096170464    0.1300
35     H35    -2.4540    4.8468    2.0675 H        1 ZINC000096170464    0.1400
36     H36     0.0819    3.2598    0.2004 H        1 ZINC000096170464    0.4300
37     H37     2.0476    3.9332    1.0580 H        1 ZINC000096170464    0.1300
38     H38     3.0044    5.4278    1.1952 H        1 ZINC000096170464    0.1100
39     H39     2.6060    6.9946    3.0186 H        1 ZINC000096170464    0.1200
40     H40     1.8382    7.2729    5.3415 H        1 ZINC000096170464    0.1300
41     H41     0.3409    5.5995    6.3522 H        1 ZINC000096170464    0.1300
42     H42    -0.3891    3.6483    5.0395 H        1 ZINC000096170464    0.1300
43     H43     0.3750    3.3725    2.7150 H        1 ZINC000096170464    0.1300
44     H44     3.1639    7.1923    0.8449 H        1 ZINC000096170464    0.1400
45     H45     2.5860    7.4779   -0.8142 H        1 ZINC000096170464    0.1400
46     H46     1.7321    9.6547   -1.4751 H        1 ZINC000096170464    0.1300
47     H47     1.7867   12.0839   -1.0760 H        1 ZINC000096170464    0.1400
48     H48     2.5154   12.9567    1.1082 H        1 ZINC000096170464    0.1300
49     H49     3.1886   11.4003    2.8935 H        1 ZINC000096170464    0.1300
50     H50     3.1295    8.9709    2.4960 H        1 ZINC000096170464    0.1300
@<TRIPOS>BOND
1     1     2     ar
2     2     3     ar
3     2     4     1
4     4     10    ar
5     4     5     ar
6     5     6     ar
7     5     33    1
8     6     7     1
9     6     8     ar
10    8     9     ar
11    8     34    1
12    9     10    ar
13    9     35    1
14    10    11    1
15    11    12    am
16    11    36    1
17    12    13    2
18    12    14    1
19    14    15    1
20    14    16    1
21    14    23    1
22    16    17    1
23    16    37    1
24    16    38    1
25    17    22    ar
26    17    18    ar
27    18    19    ar
28    18    39    1
29    19    20    ar
30    19    40    1
31    20    21    ar
32    20    41    1
33    21    22    ar
34    21    42    1
35    22    43    1
36    23    24    1
37    23    25    1
38    23    26    1
39    26    27    1
40    26    44    1
41    26    45    1
42    27    32    ar
43    27    28    ar
44    28    29    ar
45    28    46    1
46    29    30    ar
47    29    47    1
48    30    31    ar
49    30    48    1
50    31    32    ar
51    31    49    1
52    32    50    1
@<TRIPOS>SUBSTRUCTURE
1   ZINC000096170464 1     RESIDUE    1   A     ZIN   1
