@<TRIPOS>MOLECULE
ZINC000095605533
37    38    1     0     0
SMALL
USER_CHARGES
@<TRIPOS>ATOM
1      N1     -0.0116    1.0048    0.0076 N.4      1 ZINC000095605533   -0.6400
2      H2      0.0021   -0.0041    0.0020 H        1 ZINC000095605533    0.4300
3      H3      0.9350    1.3541    0.0004 H        1 ZINC000095605533    0.4300
4      H4     -0.4996    1.3391   -0.8099 H        1 ZINC000095605533    0.4500
5      C5     -0.6992    1.4786    1.2162 C.3      1 ZINC000095605533    0.0400
6      H6     -1.7218    1.1013    1.2239 H        1 ZINC000095605533    0.1500
7      C7     -0.7199    3.0084    1.2246 C.3      1 ZINC000095605533    0.0500
8      O8     -1.5096    3.4801    0.1310 O.3      1 ZINC000095605533   -0.5800
9      C9      0.0408    0.9717    2.4557 C.3      1 ZINC000095605533   -0.1000
10     C10    -0.0446   -0.5318    2.5119 C.ar     1 ZINC000095605533   -0.1200
11     C11    -1.0982   -1.1390    3.1699 C.ar     1 ZINC000095605533   -0.0400
12     C12    -1.1793   -2.5176    3.2226 C.ar     1 ZINC000095605533   -0.1100
13     I13    -2.7766   -3.4366    4.2192 I        1 ZINC000095605533    0.0200
14     C14    -0.2018   -3.2927    2.6144 C.ar     1 ZINC000095605533    0.1700
15     O15    -0.2792   -4.6485    2.6643 O.3      1 ZINC000095605533   -0.2500
16     C16    -0.9506   -5.2866    1.6690 C.ar     1 ZINC000095605533    0.1100
17     C17    -1.5260   -4.5548    0.6404 C.ar     1 ZINC000095605533   -0.1800
18     C18    -2.2076   -5.2032   -0.3709 C.ar     1 ZINC000095605533   -0.1100
19     C19    -2.3166   -6.5859   -0.3582 C.ar     1 ZINC000095605533    0.0900
20     O20    -2.9876   -7.2241   -1.3540 O.3      1 ZINC000095605533   -0.4900
21     C21    -1.7409   -7.3177    0.6699 C.ar     1 ZINC000095605533   -0.1000
22     C22    -1.0552   -6.6699    1.6788 C.ar     1 ZINC000095605533   -0.1100
23     C23     0.8547   -2.6805    1.9547 C.ar     1 ZINC000095605533   -0.1100
24     I24     2.3330   -3.8457    1.0349 I        1 ZINC000095605533    0.0200
25     C25     0.9279   -1.3015    1.9006 C.ar     1 ZINC000095605533   -0.0800
26     H26    -1.1502    3.3608    2.1620 H        1 ZINC000095605533    0.1000
27     H27     0.2979    3.3861    1.1273 H        1 ZINC000095605533    0.0800
28     H28    -1.5670    4.4437    0.0742 H        1 ZINC000095605533    0.4100
29     H29     1.0866    1.2746    2.4037 H        1 ZINC000095605533    0.1100
30     H30    -0.4161    1.3953    3.3501 H        1 ZINC000095605533    0.1300
31     H31    -1.8584   -0.5353    3.6433 H        1 ZINC000095605533    0.1500
32     H32    -1.4414   -3.4782    0.6307 H        1 ZINC000095605533    0.1200
33     H33    -2.6559   -4.6335   -1.1715 H        1 ZINC000095605533    0.1300
34     H34    -2.4327   -7.4720   -2.1061 H        1 ZINC000095605533    0.3900
35     H35    -1.8259   -8.3943    0.6796 H        1 ZINC000095605533    0.1400
36     H36    -0.6070   -7.2397    2.4793 H        1 ZINC000095605533    0.1400
37     H37     1.7498   -0.8245    1.3873 H        1 ZINC000095605533    0.1400
@<TRIPOS>BOND
1     1     2     1
2     1     3     1
3     1     4     1
4     1     5     1
5     5     6     1
6     5     7     1
7     5     9     1
8     7     8     1
9     7     26    1
10    7     27    1
11    8     28    1
12    9     10    1
13    9     29    1
14    9     30    1
15    10    25    ar
16    10    11    ar
17    11    12    ar
18    11    31    1
19    12    13    1
20    12    14    ar
21    14    15    1
22    14    23    ar
23    15    16    1
24    16    22    ar
25    16    17    ar
26    17    18    ar
27    17    32    1
28    18    19    ar
29    18    33    1
30    19    20    1
31    19    21    ar
32    20    34    1
33    21    22    ar
34    21    35    1
35    22    36    1
36    23    24    1
37    23    25    ar
38    25    37    1
@<TRIPOS>SUBSTRUCTURE
1   ZINC000095605533 1     RESIDUE    1   A     ZIN   1
