@<TRIPOS>MOLECULE
ZINC000006995453
48    51    1     0     0
SMALL
USER_CHARGES
@<TRIPOS>ATOM
1      C1     -0.0173    1.4248    0.0099 C.3      1 ZINC000006995453    0.0300
2      O2      0.0021   -0.0041    0.0020 O.3      1 ZINC000006995453   -0.3000
3      C3      0.6058   -0.6071   -1.0557 C.ar     1 ZINC000006995453    0.1400
4      C4      1.1729    0.1605   -2.0622 C.ar     1 ZINC000006995453   -0.2100
5      C5      1.7865   -0.4550   -3.1363 C.ar     1 ZINC000006995453   -0.0800
6      C6      1.8352   -1.8346   -3.2086 C.ar     1 ZINC000006995453   -0.1600
7      C7      1.2701   -2.6022   -2.2066 C.ar     1 ZINC000006995453   -0.0700
8      C8      0.6609   -1.9917   -1.1277 C.ar     1 ZINC000006995453   -0.0900
9      C9      0.0458   -2.8287   -0.0359 C.3      1 ZINC000006995453    0.1100
10     H10    -0.3832   -2.1750    0.7235 H        1 ZINC000006995453    0.1000
11     C11     1.1051   -3.6916    0.5885 C.2      1 ZINC000006995453   -0.2500
12     C12     2.1059   -3.3677    1.4207 C.2      1 ZINC000006995453    0.1300
13     C13     2.4093   -1.9906    1.9520 C.3      1 ZINC000006995453   -0.1000
14     N14     2.7940   -4.4999    1.6983 N.pl3    1 ZINC000006995453   -0.4800
15     N15     2.1866   -5.5610    1.0070 N.2      1 ZINC000006995453   -0.3100
16     C16     1.1760   -5.0834    0.3447 C.2      1 ZINC000006995453    0.3100
17     N17     0.2430   -5.7094   -0.4880 N.pl3    1 ZINC000006995453   -0.6200
18     C18    -0.9042   -5.0282   -0.8103 C.2      1 ZINC000006995453    0.2500
19     C19    -1.0437   -3.7002   -0.6234 C.2      1 ZINC000006995453   -0.2900
20     C20    -2.2368   -3.0440   -0.9806 C.2      1 ZINC000006995453    0.4000
21     O21    -2.3352   -1.8478   -0.7891 O.2      1 ZINC000006995453   -0.4600
22     C22    -3.3913   -3.7850   -1.5931 C.3      1 ZINC000006995453   -0.1600
23     C23    -2.8506   -4.9968   -2.3601 C.3      1 ZINC000006995453   -0.0500
24     C24    -4.0158   -5.8174   -2.9165 C.3      1 ZINC000006995453   -0.1400
25     C25    -1.9574   -4.5240   -3.5088 C.3      1 ZINC000006995453   -0.1500
26     C26    -2.0340   -5.8509   -1.3897 C.3      1 ZINC000006995453   -0.0900
27     H27     1.0053    1.8021    0.0021 H        1 ZINC000006995453    0.0500
28     H28    -0.5445    1.7859   -0.8732 H        1 ZINC000006995453    0.0500
29     H29    -0.5275    1.7763    0.9067 H        1 ZINC000006995453    0.1000
30     H30     1.1346    1.2384   -2.0066 H        1 ZINC000006995453    0.1300
31     H31     2.2283    0.1423   -3.9203 H        1 ZINC000006995453    0.1200
32     H32     2.3149   -2.3139   -4.0491 H        1 ZINC000006995453    0.1200
33     H33     1.3091   -3.6799   -2.2655 H        1 ZINC000006995453    0.1200
34     H34     1.8694   -1.8343    2.8859 H        1 ZINC000006995453    0.0900
35     H35     3.4805   -1.8984    2.1318 H        1 ZINC000006995453    0.0700
36     H36     2.0977   -1.2429    1.2226 H        1 ZINC000006995453    0.0900
37     H37     3.5716   -4.5666    2.2742 H        1 ZINC000006995453    0.4400
38     H38     0.4028   -6.6030   -0.8297 H        1 ZINC000006995453    0.4200
39     H39    -4.0672   -4.1221   -0.8072 H        1 ZINC000006995453    0.1000
40     H40    -3.9250   -3.1271   -2.2790 H        1 ZINC000006995453    0.1000
41     H41    -4.6073   -5.1979   -3.5906 H        1 ZINC000006995453    0.0600
42     H42    -3.6269   -6.6779   -3.4610 H        1 ZINC000006995453    0.0600
43     H43    -4.6434   -6.1611   -2.0942 H        1 ZINC000006995453    0.0600
44     H44    -1.1230   -3.9489   -3.1073 H        1 ZINC000006995453    0.0600
45     H45    -1.5752   -5.3886   -4.0514 H        1 ZINC000006995453    0.0600
46     H46    -2.5378   -3.8975   -4.1862 H        1 ZINC000006995453    0.0600
47     H47    -1.6231   -6.7097   -1.9203 H        1 ZINC000006995453    0.0900
48     H48    -2.6785   -6.1989   -0.5825 H        1 ZINC000006995453    0.1000
@<TRIPOS>BOND
1     1     2     1
2     1     27    1
3     1     28    1
4     1     29    1
5     2     3     1
6     3     8     ar
7     3     4     ar
8     4     5     ar
9     4     30    1
10    5     6     ar
11    5     31    1
12    6     7     ar
13    6     32    1
14    7     8     ar
15    7     33    1
16    8     9     1
17    9     10    1
18    9     19    1
19    9     11    1
20    11    16    1
21    11    12    2
22    12    13    1
23    12    14    1
24    13    34    1
25    13    35    1
26    13    36    1
27    14    15    1
28    14    37    1
29    15    16    2
30    16    17    1
31    17    18    1
32    17    38    1
33    18    26    1
34    18    19    2
35    19    20    1
36    20    21    2
37    20    22    1
38    22    23    1
39    22    39    1
40    22    40    1
41    23    24    1
42    23    25    1
43    23    26    1
44    24    41    1
45    24    42    1
46    24    43    1
47    25    44    1
48    25    45    1
49    25    46    1
50    26    47    1
51    26    48    1
@<TRIPOS>SUBSTRUCTURE
1   ZINC000006995453 1     RESIDUE    1   A     ZIN   1
