@<TRIPOS>MOLECULE
ZINC000001568870
  28   29    0    0    0
SMALL
USER_CHARGES
NO_NAME
@<TRIPOS>ATOM
    1 O1        1.9227     3.3085     1.5237 O.2    1 <0>      -0.5200
    2 C2        0.9953     2.9569     0.8140 C.2    1 <0>       0.6300
    3 N3       -0.1546     3.6344     0.8502 N.2    1 <0>      -0.5400
    4 C4       -1.1727     3.2771     0.0940 C.2    1 <0>       0.2500
    5 C5       -1.0528     2.1756    -0.7586 C.2    1 <0>      -0.2900
    6 C6        0.1212     1.4893    -0.7911 C.2    1 <0>       0.1700
    7 N7        1.1478     1.8946     0.0013 N.am   1 <0>      -0.5300
    8 C8        2.4194     1.1674    -0.0207 C.3    1 <0>       0.2800
    9 H9        3.2435     1.8517    -0.2227 H      1 <0>       0.1500
   10 O10       2.3818     0.1188    -1.0132 O.3    1 <0>      -0.3300
   11 C11       1.6275    -0.9528    -0.4061 C.3    1 <0>       0.0200
   12 H12       0.5599    -0.7369    -0.4488 H      1 <0>       0.0900
   13 C13       1.9300    -2.2796    -1.1053 C.3    1 <0>       0.0800
   14 O14       1.4365    -2.2351    -2.4456 O.3    1 <0>      -0.5700
   15 C15       2.1097    -0.9931     1.0610 C.3    1 <0>       0.0400
   16 H16       1.2791    -1.2180     1.7300 H      1 <0>       0.0900
   17 O17       3.1531    -1.9566     1.2188 O.3    1 <0>      -0.5400
   18 C18       2.6440     0.4362     1.3214 C.3    1 <0>       0.0900
   19 H19       2.0769     0.9166     2.1187 H      1 <0>       0.0900
   20 O20       4.0343     0.3990     1.6499 O.3    1 <0>      -0.5300
   21 H21      -2.0976     3.8334     0.1330 H      1 <0>       0.1800
   22 H22      -1.8810     1.8736    -1.3826 H      1 <0>       0.1600
   23 H23       0.2371     0.6350    -1.4416 H      1 <0>       0.1800
   24 H24       3.0072    -2.4452    -1.1200 H      1 <0>       0.0700
   25 H25       1.4446    -3.0933    -0.5663 H      1 <0>       0.0700
   26 H26       1.5938    -3.0451    -2.9498 H      1 <0>       0.3900
   27 H27       2.8868    -2.8625     1.0102 H      1 <0>       0.3800
   28 H28       4.2355    -0.1015     2.4525 H      1 <0>       0.3900
@<TRIPOS>BOND
   1    1    2 2
   2    2    7 am
   3    2    3 1
   4    3    4 2
   5    4    5 1
   6    4   21 1
   7    5    6 2
   8    5   22 1
   9    6    7 1
  10    6   23 1
  11    7    8 1
  12    8    9 1
  13    8   18 1
  14    8   10 1
  15   10   11 1
  16   11   12 1
  17   11   13 1
  18   11   15 1
  19   13   14 1
  20   13   24 1
  21   13   25 1
  22   14   26 1
  23   15   16 1
  24   15   17 1
  25   15   18 1
  26   17   27 1
  27   18   19 1
  28   18   20 1
  29   20   28 1
