@<TRIPOS>MOLECULE
ZINC000103253996
73    77    1     0     0
SMALL
USER_CHARGES
@<TRIPOS>ATOM
1      C1      2.6345    0.6532   -0.5697 C.3      1 ZINC000103253996    0.0200
2      O2      2.3308   -0.7064   -0.2511 O.3      1 ZINC000103253996   -0.3200
3      C3      1.0504   -0.9839    0.1129 C.ar     1 ZINC000103253996    0.1100
4      C4      0.1102    0.0265    0.1562 C.ar     1 ZINC000103253996   -0.1300
5      C5     -1.2052   -0.2623    0.5304 C.ar     1 ZINC000103253996   -0.1000
6      C6     -2.2137    0.8145    0.5777 C.2      1 ZINC000103253996    0.5600
7      N7     -3.4818    0.5348    0.9386 N.am     1 ZINC000103253996   -0.8500
8      O8     -1.9005    1.9538    0.2909 O.2      1 ZINC000103253996   -0.5300
9      C9     -1.5639   -1.5717    0.8591 C.ar     1 ZINC000103253996   -0.1000
10     C10    -0.6219   -2.5762    0.8148 C.ar     1 ZINC000103253996   -0.1000
11     C11     0.6846   -2.2912    0.4374 C.ar     1 ZINC000103253996    0.1200
12     N12     1.6358   -3.3123    0.3934 N.am     1 ZINC000103253996   -0.6300
13     C13     1.2429   -4.5936    0.2507 C.2      1 ZINC000103253996    0.5100
14     O14     0.0733   -4.8516    0.0598 O.2      1 ZINC000103253996   -0.5000
15     C15     2.2568   -5.7058    0.3283 C.3      1 ZINC000103253996   -0.0100
16     H16     2.9719   -5.5013    1.1251 H        1 ZINC000103253996    0.1800
17     N17     1.5739   -6.9941    0.5819 N.4      1 ZINC000103253996   -0.5000
18     H18     2.1568   -7.5903    1.1500 H        1 ZINC000103253996    0.4400
19     H19     0.6891   -6.8340    1.0398 H        1 ZINC000103253996    0.4400
20     C20     1.3564   -7.6125   -0.7535 C.3      1 ZINC000103253996    0.0600
21     H21     0.4814   -7.1811   -1.2396 H        1 ZINC000103253996    0.1700
22     C22     1.2095   -9.1303   -0.6285 C.3      1 ZINC000103253996   -0.1400
23     C23    -0.0875   -9.4578    0.1141 C.3      1 ZINC000103253996   -0.0700
24     C24    -1.2611   -8.7619   -0.5782 C.3      1 ZINC000103253996   -0.1600
25     C25    -0.3134  -10.9710    0.1031 C.3      1 ZINC000103253996   -0.1500
26     C26     0.0150   -8.9678    1.5599 C.3      1 ZINC000103253996   -0.1700
27     C27     2.6382   -7.2487   -1.5204 C.3      1 ZINC000103253996   -0.0600
28     C28     3.7425   -8.2315   -1.2509 C.2      1 ZINC000103253996    0.5500
29     O29     4.2201   -8.5071   -0.1708 O.2      1 ZINC000103253996   -0.4600
30     N30     4.0983   -8.7475   -2.4452 N.am     1 ZINC000103253996   -0.6400
31     C31     3.3507   -8.2164   -3.4896 C.ar     1 ZINC000103253996    0.2200
32     C32     3.3708   -8.4517   -4.8638 C.ar     1 ZINC000103253996   -0.1700
33     C33     2.4925   -7.7622   -5.6764 C.ar     1 ZINC000103253996    0.2200
34     Cl34    2.5101   -8.0478   -7.3887 Cl       1 ZINC000103253996    0.0100
35     N35     1.6393   -6.8897   -5.1723 N.ar     1 ZINC000103253996   -0.4700
36     C36     1.5880   -6.6389   -3.8755 C.ar     1 ZINC000103253996    0.1900
37     C37     2.4298   -7.2847   -3.0038 C.ar     1 ZINC000103253996   -0.2100
38     C38     2.9955   -5.8386   -1.0195 C.3      1 ZINC000103253996   -0.0100
39     H39     2.6404   -5.0851   -1.7225 H        1 ZINC000103253996    0.1500
40     C40     4.4846   -5.7128   -0.8250 C.ar     1 ZINC000103253996   -0.1500
41     C41     5.2627   -5.1284   -1.8062 C.ar     1 ZINC000103253996   -0.0600
42     C42     6.6290   -5.0120   -1.6285 C.ar     1 ZINC000103253996   -0.1000
43     C43     7.2188   -5.4803   -0.4696 C.ar     1 ZINC000103253996   -0.0600
44     C44     6.4424   -6.0660    0.5140 C.ar     1 ZINC000103253996   -0.0700
45     Cl45    7.1830   -6.6547    1.9695 Cl       1 ZINC000103253996   -0.0200
46     C46     5.0725   -6.1774    0.3391 C.ar     1 ZINC000103253996    0.1300
47     F47     4.3127   -6.7492    1.2987 F        1 ZINC000103253996   -0.1200
48     H48     3.6865    0.7361   -0.8428 H        1 ZINC000103253996    0.1100
49     H49     2.0154    0.9773   -1.4062 H        1 ZINC000103253996    0.0600
50     H50     2.4333    1.2831    0.2968 H        1 ZINC000103253996    0.0600
51     H51     0.3907    1.0379   -0.0982 H        1 ZINC000103253996    0.1500
52     H52    -3.7317   -0.3742    1.1673 H        1 ZINC000103253996    0.4000
53     H53    -4.1445    1.2424    0.9696 H        1 ZINC000103253996    0.4100
54     H54    -2.5798   -1.7966    1.1485 H        1 ZINC000103253996    0.1400
55     H55    -0.9007   -3.5881    1.0696 H        1 ZINC000103253996    0.1600
56     H56     2.5794   -3.0996    0.4655 H        1 ZINC000103253996    0.4300
57     H57     1.1812   -9.5757   -1.6230 H        1 ZINC000103253996    0.1200
58     H58     2.0572   -9.5330   -0.0741 H        1 ZINC000103253996    0.1000
59     H59    -1.3342   -9.1109   -1.6082 H        1 ZINC000103253996    0.0700
60     H60    -2.1852   -8.9952   -0.0492 H        1 ZINC000103253996    0.0800
61     H61    -1.1002   -7.6839   -0.5704 H        1 ZINC000103253996    0.0600
62     H62     0.5228  -11.4667    0.5963 H        1 ZINC000103253996    0.0600
63     H63    -1.2374  -11.2042    0.6322 H        1 ZINC000103253996    0.0700
64     H64    -0.3864  -11.3200   -0.9269 H        1 ZINC000103253996    0.0600
65     H65    -0.2135   -7.9028    1.5997 H        1 ZINC000103253996    0.0500
66     H66    -0.6948   -9.5151    2.1802 H        1 ZINC000103253996    0.0900
67     H67     1.0263   -9.1366    1.9298 H        1 ZINC000103253996    0.0600
68     H68     4.7955   -9.4117   -2.5618 H        1 ZINC000103253996    0.4300
69     H69     4.0643   -9.1633   -5.2870 H        1 ZINC000103253996    0.1600
70     H70     0.8771   -5.9189   -3.4979 H        1 ZINC000103253996    0.1700
71     H71     4.8034   -4.7626   -2.7127 H        1 ZINC000103253996    0.1500
72     H72     7.2359   -4.5551   -2.3962 H        1 ZINC000103253996    0.1500
73     H73     8.2861   -5.3891   -0.3321 H        1 ZINC000103253996    0.1600
@<TRIPOS>BOND
1     1     2     1
2     1     48    1
3     1     49    1
4     1     50    1
5     2     3     1
6     3     11    ar
7     3     4     ar
8     4     5     ar
9     4     51    1
10    5     6     1
11    5     9     ar
12    6     7     am
13    6     8     2
14    7     52    1
15    7     53    1
16    9     10    ar
17    9     54    1
18    10    11    ar
19    10    55    1
20    11    12    1
21    12    13    am
22    12    56    1
23    13    14    2
24    13    15    1
25    15    16    1
26    15    38    1
27    15    17    1
28    17    18    1
29    17    19    1
30    17    20    1
31    20    21    1
32    20    22    1
33    20    27    1
34    22    23    1
35    22    57    1
36    22    58    1
37    23    24    1
38    23    25    1
39    23    26    1
40    24    59    1
41    24    60    1
42    24    61    1
43    25    62    1
44    25    63    1
45    25    64    1
46    26    65    1
47    26    66    1
48    26    67    1
49    27    37    1
50    27    28    1
51    27    38    1
52    28    29    2
53    28    30    am
54    30    31    1
55    30    68    1
56    31    37    ar
57    31    32    ar
58    32    33    ar
59    32    69    1
60    33    34    1
61    33    35    ar
62    35    36    ar
63    36    37    ar
64    36    70    1
65    38    39    1
66    38    40    1
67    40    46    ar
68    40    41    ar
69    41    42    ar
70    41    71    1
71    42    43    ar
72    42    72    1
73    43    44    ar
74    43    73    1
75    44    45    1
76    44    46    ar
77    46    47    1
@<TRIPOS>SUBSTRUCTURE
1   ZINC000103253996 1     RESIDUE    1   A     ZIN   1
