@<TRIPOS>MOLECULE
ZINC000043203531
66    70    1     0     0
SMALL
USER_CHARGES
@<TRIPOS>ATOM
1      C1     -0.8466    1.0806    0.4206 C.3      1 ZINC000043203531   -0.0800
2      C2     -1.2918   -0.3497    0.2554 C.ar     1 ZINC000043203531    0.3700
3      N3     -1.0675   -0.9551   -0.8970 N.ar     1 ZINC000043203531   -0.5200
4      C4     -1.4425   -2.2146   -1.0871 C.ar     1 ZINC000043203531    0.4800
5      N5     -1.2046   -2.8457   -2.2979 N.pl3    1 ZINC000043203531   -0.6100
6      C6     -0.5636   -2.1547   -3.3337 C.2      1 ZINC000043203531    0.3500
7      N7     -0.1357   -0.9157   -3.2842 N.2      1 ZINC000043203531   -0.2300
8      N8      0.4441   -0.6044   -4.5200 N.pl3    1 ZINC000043203531   -0.4400
9      C9      0.3508   -1.6957   -5.3131 C.2      1 ZINC000043203531    0.0900
10     C10    -0.2604   -2.6698   -4.6073 C.2      1 ZINC000043203531   -0.3000
11     C11    -0.3815   -3.9056   -5.4627 C.3      1 ZINC000043203531    0.1800
12     N12     0.2155   -3.5991   -6.7676 N.am     1 ZINC000043203531   -0.6100
13     C13     0.3149   -4.4280   -7.8257 C.2      1 ZINC000043203531    0.7300
14     O14     0.8365   -4.0416   -8.8538 O.2      1 ZINC000043203531   -0.5700
15     N15    -0.1640   -5.6852   -7.7442 N.am     1 ZINC000043203531   -0.7500
16     C16    -0.1662   -6.5465   -8.9292 C.3      1 ZINC000043203531    0.1800
17     H17     0.4804   -6.1149   -9.6933 H        1 ZINC000043203531    0.1300
18     C18    -1.5916   -6.6619   -9.4732 C.3      1 ZINC000043203531   -0.0200
19     N19    -2.0764   -5.3310   -9.8626 N.4      1 ZINC000043203531   -0.3900
20     H20    -1.9759   -4.6957   -9.0851 H        1 ZINC000043203531    0.4200
21     C21    -1.2914   -4.8381  -11.0023 C.3      1 ZINC000043203531   -0.0600
22     C22    -3.4923   -5.4179  -10.2442 C.3      1 ZINC000043203531   -0.0500
23     C23     0.3415   -7.9154   -8.5562 C.ar     1 ZINC000043203531   -0.1200
24     C24    -0.0380   -8.4905   -7.3578 C.ar     1 ZINC000043203531   -0.1100
25     C25     0.4278   -9.7462   -7.0156 C.ar     1 ZINC000043203531   -0.1100
26     C26     1.2726  -10.4271   -7.8720 C.ar     1 ZINC000043203531   -0.1000
27     C27     1.6514   -9.8525   -9.0708 C.ar     1 ZINC000043203531   -0.1100
28     C28     1.1823   -8.5985   -9.4150 C.ar     1 ZINC000043203531   -0.1000
29     C29     0.6856   -2.2111   -6.6900 C.3      1 ZINC000043203531    0.2600
30     C30    -0.0265   -1.3617   -7.7447 C.3      1 ZINC000043203531   -0.1600
31     C31     2.1982   -2.1615   -6.9147 C.3      1 ZINC000043203531   -0.1600
32     C32    -2.0840   -2.8964   -0.0403 C.ar     1 ZINC000043203531   -0.3100
33     S33    -2.7108   -4.5341    0.0758 S.3      1 ZINC000043203531    0.1200
34     C34    -3.2436   -4.2617    1.7264 C.2      1 ZINC000043203531   -0.1400
35     C35    -2.9541   -3.0301    2.1156 C.2      1 ZINC000043203531   -0.1200
36     C36    -2.3054   -2.2261    1.1652 C.ar     1 ZINC000043203531    0.2000
37     N37    -1.8811   -0.9452    1.2616 N.ar     1 ZINC000043203531   -0.5200
38     H38     0.1737    1.1016    0.8035 H        1 ZINC000043203531    0.0900
39     H39    -0.8831    1.5862   -0.5443 H        1 ZINC000043203531    0.0900
40     H40    -1.5084    1.5884    1.1222 H        1 ZINC000043203531    0.0900
41     H41    -1.4820   -3.7660   -2.4279 H        1 ZINC000043203531    0.4300
42     H42     0.8427    0.2454   -4.7646 H        1 ZINC000043203531    0.4500
43     H43     0.1536   -4.7326   -4.9960 H        1 ZINC000043203531    0.0800
44     H44    -1.4322   -4.1669   -5.5887 H        1 ZINC000043203531    0.0800
45     H45    -0.5072   -6.0197   -6.9008 H        1 ZINC000043203531    0.4100
46     H46    -1.5965   -7.3192  -10.3427 H        1 ZINC000043203531    0.1500
47     H47    -2.2424   -7.0744   -8.7022 H        1 ZINC000043203531    0.1400
48     H48    -1.4457   -5.4928  -11.8600 H        1 ZINC000043203531    0.1200
49     H49    -1.6122   -3.8273  -11.2544 H        1 ZINC000043203531    0.1200
50     H50    -0.2340   -4.8284  -10.7381 H        1 ZINC000043203531    0.1400
51     H51    -4.0747   -5.7837   -9.3985 H        1 ZINC000043203531    0.1200
52     H52    -3.8520   -4.4304  -10.5331 H        1 ZINC000043203531    0.1200
53     H53    -3.6007   -6.1042  -11.0840 H        1 ZINC000043203531    0.1300
54     H54    -0.6980   -7.9585   -6.6887 H        1 ZINC000043203531    0.1200
55     H55     0.1318  -10.1952   -6.0790 H        1 ZINC000043203531    0.1300
56     H56     1.6371  -11.4079   -7.6044 H        1 ZINC000043203531    0.1300
57     H57     2.3118  -10.3843   -9.7398 H        1 ZINC000043203531    0.1300
58     H58     1.4782   -8.1495  -10.3516 H        1 ZINC000043203531    0.1300
59     H59    -1.1016   -1.3881   -7.5672 H        1 ZINC000043203531    0.0600
60     H60     0.3270   -0.3326   -7.6817 H        1 ZINC000043203531    0.0800
61     H61     0.1879   -1.7594   -8.7367 H        1 ZINC000043203531    0.0800
62     H62     2.4327   -2.5664   -7.8992 H        1 ZINC000043203531    0.0900
63     H63     2.5406   -1.1284   -6.8558 H        1 ZINC000043203531    0.0700
64     H64     2.6988   -2.7545   -6.1493 H        1 ZINC000043203531    0.0600
65     H65    -3.7403   -4.9984    2.3404 H        1 ZINC000043203531    0.1800
66     H66    -3.2015   -2.6666    3.1020 H        1 ZINC000043203531    0.1600
@<TRIPOS>BOND
1     1     2     1
2     1     38    1
3     1     39    1
4     1     40    1
5     2     37    ar
6     2     3     ar
7     3     4     ar
8     4     5     1
9     4     32    ar
10    5     6     1
11    5     41    1
12    6     10    1
13    6     7     2
14    7     8     1
15    8     9     1
16    8     42    1
17    9     29    1
18    9     10    2
19    10    11    1
20    11    12    1
21    11    43    1
22    11    44    1
23    12    13    am
24    12    29    1
25    13    14    2
26    13    15    am
27    15    16    1
28    15    45    1
29    16    17    1
30    16    18    1
31    16    23    1
32    18    19    1
33    18    46    1
34    18    47    1
35    19    20    1
36    19    21    1
37    19    22    1
38    21    48    1
39    21    49    1
40    21    50    1
41    22    51    1
42    22    52    1
43    22    53    1
44    23    28    ar
45    23    24    ar
46    24    25    ar
47    24    54    1
48    25    26    ar
49    25    55    1
50    26    27    ar
51    26    56    1
52    27    28    ar
53    27    57    1
54    28    58    1
55    29    30    1
56    29    31    1
57    30    59    1
58    30    60    1
59    30    61    1
60    31    62    1
61    31    63    1
62    31    64    1
63    32    36    ar
64    32    33    1
65    33    34    1
66    34    35    2
67    34    65    1
68    35    36    1
69    35    66    1
70    36    37    ar
@<TRIPOS>SUBSTRUCTURE
1   ZINC000043203531 1     RESIDUE    1   A     ZIN   1
