@<TRIPOS>MOLECULE
ZINC000101388872
  21   23    0    0    0
SMALL
USER_CHARGES
NO_NAME
@<TRIPOS>ATOM
    1 O1        0.0021    -0.0041     0.0020 O.2    1 <0>      -0.5300
    2 C2       -0.0145     1.2162     0.0087 C.2    1 <0>       0.5500
    3 N3       -1.1051     2.0126     0.0294 N.am   1 <0>      -0.5500
    4 N4       -0.7241     3.3567     0.0312 N.2    1 <0>      -0.2500
    5 C5        0.5717     3.4756     0.0127 C.2    1 <0>       0.1600
    6 C6        1.1404     2.1086     0.0025 C.2    1 <0>      -0.3500
    7 C7        2.5037     1.9480    -0.0178 C.2    1 <0>       0.2800
    8 N8        3.3387     2.9993    -0.0283 N.pl3  1 <0>      -0.6000
    9 C9        2.8986     4.3121    -0.0196 C.ar   1 <0>       0.1700
   10 C10       3.8125     5.3598    -0.0308 C.ar   1 <0>      -0.1400
   11 C11       3.3675     6.6655    -0.0220 C.ar   1 <0>      -0.0600
   12 C12       2.0105     6.9493    -0.0024 C.ar   1 <0>      -0.0600
   13 Cl13      1.4711     8.5994     0.0085 Cl     1 <0>      -0.0500
   14 C14       1.0869     5.9227     0.0081 C.ar   1 <0>      -0.0400
   15 C15       1.5244     4.6026     0.0045 C.ar   1 <0>      -0.0300
   16 H16      -2.0220     1.6964     0.0409 H      1 <0>       0.4400
   17 H17       2.9154     0.9495    -0.0252 H      1 <0>       0.1800
   18 H18       4.2940     2.8315    -0.0423 H      1 <0>       0.4300
   19 H19       4.8720     5.1512    -0.0461 H      1 <0>       0.1500
   20 H20       4.0830     7.4745    -0.0300 H      1 <0>       0.1500
   21 H21       0.0299     6.1439     0.0233 H      1 <0>       0.1500
@<TRIPOS>BOND
   1    1    2 2
   2    2    6 1
   3    2    3 am
   4    3    4 1
   5    3   16 1
   6    4    5 2
   7    5   15 1
   8    5    6 1
   9    6    7 2
  10    7    8 1
  11    7   17 1
  12    8    9 1
  13    8   18 1
  14    9   15 ar
  15    9   10 ar
  16   10   11 ar
  17   10   19 1
  18   11   12 ar
  19   11   20 1
  20   12   13 1
  21   12   14 ar
  22   14   15 ar
  23   14   21 1
