@<TRIPOS>MOLECULE
ZINC000043013490
65    69    1     0     0
SMALL
USER_CHARGES
@<TRIPOS>ATOM
1      C1      0.9677    1.1727   -0.7442 C.3      1 ZINC000043013490    0.0600
2      O2      0.4665   -0.1327   -0.3529 O.3      1 ZINC000043013490   -0.3700
3      C3      1.0896   -0.7446    0.6719 C.2      1 ZINC000043013490    0.6500
4      O4      2.0265   -0.2026    1.2241 O.2      1 ZINC000043013490   -0.5500
5      N5      0.6742   -1.9583    1.0852 N.am     1 ZINC000043013490   -0.6500
6      C6      1.3792   -2.6355    2.0833 C.ar     1 ZINC000043013490    0.1800
7      C7      1.9668   -1.9234    3.1227 C.ar     1 ZINC000043013490   -0.1300
8      C8      2.6624   -2.5890    4.1086 C.ar     1 ZINC000043013490   -0.0400
9      C9      2.7767   -3.9786    4.0631 C.ar     1 ZINC000043013490   -0.0600
10     C10     3.5236   -4.6968    5.1219 C.ar     1 ZINC000043013490    0.4400
11     N11     3.6214   -6.0212    5.0509 N.ar     1 ZINC000043013490   -0.5800
12     C12     4.2797   -6.7104    5.9737 C.ar     1 ZINC000043013490    0.4500
13     N13     4.3770   -8.0858    5.8923 N.3      1 ZINC000043013490   -0.4700
14     C14     5.7830   -8.5155    5.8950 C.3      1 ZINC000043013490    0.0200
15     C15     5.8436  -10.0450    5.8640 C.3      1 ZINC000043013490    0.0600
16     O16     5.1338  -10.5220    4.7176 O.3      1 ZINC000043013490   -0.3800
17     C17     3.7610  -10.1225    4.6831 C.3      1 ZINC000043013490    0.0600
18     C18     3.6793   -8.5938    4.7022 C.3      1 ZINC000043013490    0.0300
19     C19     4.8778   -6.0074    7.0389 C.ar     1 ZINC000043013490   -0.3000
20     C20     5.6341   -6.3802    8.1705 C.2      1 ZINC000043013490    0.1000
21     N21     5.9394   -5.3031    8.8367 N.2      1 ZINC000043013490   -0.2400
22     N22     5.4084   -4.1806    8.1889 N.pl3    1 ZINC000043013490   -0.3700
23     C23     5.5396   -2.7908    8.6331 C.3      1 ZINC000043013490    0.1700
24     C24     4.9158   -2.6385   10.0223 C.3      1 ZINC000043013490   -0.1400
25     C25     5.0239   -1.1771   10.4688 C.3      1 ZINC000043013490    0.1300
26     N26     6.4309   -0.7614   10.3903 N.am     1 ZINC000043013490   -0.6000
27     C27     7.0475   -0.2194   11.4591 C.2      1 ZINC000043013490    0.6500
28     O28     6.4394   -0.0704   12.5005 O.2      1 ZINC000043013490   -0.5700
29     O29     8.3373    0.1570   11.3730 O.3      1 ZINC000043013490   -0.3700
30     C30     8.9367    0.7333   12.5634 C.3      1 ZINC000043013490    0.0600
31     C31     7.1532   -0.9483    9.1245 C.3      1 ZINC000043013490    0.1200
32     C32     7.0212   -2.4123    8.6931 C.3      1 ZINC000043013490   -0.1400
33     C33     4.7482   -4.6043    7.0733 C.ar     1 ZINC000043013490    0.3700
34     N34     4.0736   -3.9963    6.1012 N.ar     1 ZINC000043013490   -0.5500
35     C35     2.1861   -4.6908    3.0190 C.ar     1 ZINC000043013490   -0.0400
36     C36     1.4871   -4.0208    2.0384 C.ar     1 ZINC000043013490   -0.1500
37     H37     2.0114    1.0856   -1.0460 H        1 ZINC000043013490    0.0700
38     H38     0.3786    1.5527   -1.5789 H        1 ZINC000043013490    0.1100
39     H39     0.8892    1.8596    0.0985 H        1 ZINC000043013490    0.0700
40     H40    -0.1144   -2.3616    0.6897 H        1 ZINC000043013490    0.4200
41     H41     1.8784   -0.8476    3.1573 H        1 ZINC000043013490    0.1500
42     H42     3.1190   -2.0353    4.9157 H        1 ZINC000043013490    0.1400
43     H43     6.2882   -8.1134    5.0169 H        1 ZINC000043013490    0.0600
44     H44     6.2735   -8.1501    6.7972 H        1 ZINC000043013490    0.1000
45     H45     6.8834  -10.3670    5.8082 H        1 ZINC000043013490    0.1100
46     H46     5.3858  -10.4458    6.7683 H        1 ZINC000043013490    0.0700
47     H47     3.2947  -10.5006    3.7733 H        1 ZINC000043013490    0.1100
48     H48     3.2427  -10.5256    5.5531 H        1 ZINC000043013490    0.0600
49     H49     2.6343   -8.2856    4.7337 H        1 ZINC000043013490    0.1000
50     H50     4.1509   -8.1929    3.8050 H        1 ZINC000043013490    0.0700
51     H51     5.9123   -7.3885    8.4393 H        1 ZINC000043013490    0.2000
52     H52     5.0254   -2.1349    7.9306 H        1 ZINC000043013490    0.1100
53     H53     3.8664   -2.9305    9.9839 H        1 ZINC000043013490    0.0900
54     H54     5.4455   -3.2755   10.7308 H        1 ZINC000043013490    0.0900
55     H55     4.4203   -0.5492    9.8135 H        1 ZINC000043013490    0.0800
56     H56     4.6715   -1.0818   11.4959 H        1 ZINC000043013490    0.1100
57     H57     8.3880    1.6310   12.8483 H        1 ZINC000043013490    0.0600
58     H58     8.8966    0.0094   13.3773 H        1 ZINC000043013490    0.0600
59     H59     9.9755    0.9922   12.3582 H        1 ZINC000043013490    0.1000
60     H60     6.7232   -0.3018    8.3595 H        1 ZINC000043013490    0.0800
61     H61     8.2057   -0.7021    9.2646 H        1 ZINC000043013490    0.1000
62     H62     7.5311   -3.0514    9.4140 H        1 ZINC000043013490    0.0800
63     H63     7.4703   -2.5433    7.7086 H        1 ZINC000043013490    0.0800
64     H64     2.2732   -5.7666    2.9815 H        1 ZINC000043013490    0.1400
65     H65     1.0294   -4.5718    1.2301 H        1 ZINC000043013490    0.1400
@<TRIPOS>BOND
1     1     2     1
2     1     37    1
3     1     38    1
4     1     39    1
5     2     3     1
6     3     4     2
7     3     5     am
8     5     6     1
9     5     40    1
10    6     36    ar
11    6     7     ar
12    7     8     ar
13    7     41    1
14    8     9     ar
15    8     42    1
16    9     10    1
17    9     35    ar
18    10    34    ar
19    10    11    ar
20    11    12    ar
21    12    13    1
22    12    19    ar
23    13    18    1
24    13    14    1
25    14    15    1
26    14    43    1
27    14    44    1
28    15    16    1
29    15    45    1
30    15    46    1
31    16    17    1
32    17    18    1
33    17    47    1
34    17    48    1
35    18    49    1
36    18    50    1
37    19    33    ar
38    19    20    1
39    20    21    2
40    20    51    1
41    21    22    1
42    22    23    1
43    22    33    1
44    23    32    1
45    23    24    1
46    23    52    1
47    24    25    1
48    24    53    1
49    24    54    1
50    25    26    1
51    25    55    1
52    25    56    1
53    26    27    am
54    26    31    1
55    27    28    2
56    27    29    1
57    29    30    1
58    30    57    1
59    30    58    1
60    30    59    1
61    31    32    1
62    31    60    1
63    31    61    1
64    32    62    1
65    32    63    1
66    33    34    ar
67    35    36    ar
68    35    64    1
69    36    65    1
@<TRIPOS>SUBSTRUCTURE
1   ZINC000043013490 1     RESIDUE    1   A     ZIN   1
