@<TRIPOS>MOLECULE
ZINC000059223658
56    60    1     0     0
SMALL
USER_CHARGES
@<TRIPOS>ATOM
1      N1     -0.0168    1.3902    0.0097 N.pl3    1 ZINC000059223658   -0.8400
2      C2      0.0021   -0.0041    0.0020 C.ar     1 ZINC000059223658    0.3000
3      C3     -1.1802   -0.7145    0.1081 C.ar     1 ZINC000059223658   -0.0500
4      F4     -2.3585   -0.0631    0.2193 F        1 ZINC000059223658   -0.1300
5      C5     -1.1459   -2.1049    0.0989 C.ar     1 ZINC000059223658    0.1700
6      N6     -2.3361   -2.8218    0.2348 N.3      1 ZINC000059223658   -0.6200
7      C7     -3.2718   -2.4994   -0.8508 C.3      1 ZINC000059223658    0.0400
8      C8     -4.5612   -3.3025   -0.6681 C.3      1 ZINC000059223658    0.1300
9      N9     -5.4944   -2.9809   -1.7508 N.pl3    1 ZINC000059223658   -0.7200
10     C10    -6.7420   -3.5920   -1.7974 C.ar     1 ZINC000059223658    0.4000
11     C11    -7.1004   -4.5036   -0.8098 C.ar     1 ZINC000059223658   -0.2400
12     C12    -8.3454   -5.1040   -0.8682 C.ar     1 ZINC000059223658   -0.0300
13     C13    -9.1930   -4.7712   -1.9162 C.ar     1 ZINC000059223658   -0.2400
14     C14    -8.7723   -3.8579   -2.8624 C.ar     1 ZINC000059223658    0.1500
15     N15    -7.5810   -3.2970   -2.7786 N.ar     1 ZINC000059223658   -0.5500
16     C16     0.0541   -2.7926   -0.0439 C.ar     1 ZINC000059223658   -0.0500
17     O17     0.0361   -4.1509    0.0488 O.3      1 ZINC000059223658   -0.3000
18     C18     0.1729   -4.9094   -1.1332 C.3      1 ZINC000059223658    0.0600
19     C19     1.4395   -4.5611   -1.9002 C.3      1 ZINC000059223658   -0.1500
20     C20     2.5098   -4.1480   -0.8858 C.3      1 ZINC000059223658    0.1400
21     C21     2.6091   -5.1046    0.3104 C.3      1 ZINC000059223658   -0.1300
22     C22     4.1356   -4.9427    0.2085 C.3      1 ZINC000059223658   -0.1500
23     C23     3.9226   -4.6009   -1.2763 C.3      1 ZINC000059223658   -0.1500
24     N24     2.4418   -2.7369   -0.4907 N.pl3    1 ZINC000059223658   -0.4700
25     C25     3.6261   -2.0905   -0.4166 C.2      1 ZINC000059223658    0.1300
26     C26     3.7247   -0.7279   -0.2482 C.2      1 ZINC000059223658   -0.2900
27     C27     5.0350   -0.0742   -0.1840 C.2      1 ZINC000059223658    0.5400
28     O28     6.0572   -0.7410   -0.2805 O.co2    1 ZINC000059223658   -0.7000
29     O29     5.1073    1.1387   -0.0340 O.co2    1 ZINC000059223658   -0.6600
30     C30     2.4846    0.0592   -0.1344 C.2      1 ZINC000059223658    0.4300
31     O31     2.5058    1.2759   -0.0615 O.2      1 ZINC000059223658   -0.4600
32     C32     1.2197   -0.6906   -0.1191 C.ar     1 ZINC000059223658   -0.2700
33     C33     1.2559   -2.0987   -0.2145 C.ar     1 ZINC000059223658    0.2600
34     H34     0.7243    1.8874   -0.3704 H        1 ZINC000059223658    0.4200
35     H35    -0.7729    1.8629    0.3915 H        1 ZINC000059223658    0.4000
36     H36    -2.1579   -3.8141    0.2757 H        1 ZINC000059223658    0.3700
37     H37    -3.5011   -1.4340   -0.8284 H        1 ZINC000059223658    0.1000
38     H38    -2.8183   -2.7533   -1.8089 H        1 ZINC000059223658    0.0500
39     H39    -4.3320   -4.3679   -0.6906 H        1 ZINC000059223658    0.0600
40     H40    -5.0148   -3.0485    0.2899 H        1 ZINC000059223658    0.0800
41     H41    -5.2416   -2.3415   -2.4350 H        1 ZINC000059223658    0.4100
42     H42    -6.4159   -4.7397   -0.0085 H        1 ZINC000059223658    0.1300
43     H43    -8.6509   -5.8158   -0.1157 H        1 ZINC000059223658    0.1300
44     H44   -10.1714   -5.2224   -1.9908 H        1 ZINC000059223658    0.1300
45     H45    -9.4284   -3.5961   -3.6793 H        1 ZINC000059223658    0.1500
46     H46     0.1973   -5.9676   -0.8730 H        1 ZINC000059223658    0.1000
47     H47    -0.6898   -4.7247   -1.7733 H        1 ZINC000059223658    0.0400
48     H48     1.7806   -5.4305   -2.4621 H        1 ZINC000059223658    0.1000
49     H49     1.2410   -3.7350   -2.5831 H        1 ZINC000059223658    0.0800
50     H50     2.1871   -4.6994    1.2302 H        1 ZINC000059223658    0.0800
51     H51     2.2612   -6.1144    0.0925 H        1 ZINC000059223658    0.0900
52     H52     4.5266   -4.1119    0.7959 H        1 ZINC000059223658    0.0900
53     H53     4.6846   -5.8707    0.3684 H        1 ZINC000059223658    0.0800
54     H54     3.9367   -5.4718   -1.9315 H        1 ZINC000059223658    0.1000
55     H55     4.5580   -3.7905   -1.6336 H        1 ZINC000059223658    0.0900
56     H56     4.5354   -2.6684   -0.4924 H        1 ZINC000059223658    0.1800
@<TRIPOS>BOND
1     1     2     1
2     1     34    1
3     1     35    1
4     2     32    ar
5     2     3     ar
6     3     4     1
7     3     5     ar
8     5     6     1
9     5     16    ar
10    6     7     1
11    6     36    1
12    7     8     1
13    7     37    1
14    7     38    1
15    8     9     1
16    8     39    1
17    8     40    1
18    9     10    1
19    9     41    1
20    10    15    ar
21    10    11    ar
22    11    12    ar
23    11    42    1
24    12    13    ar
25    12    43    1
26    13    14    ar
27    13    44    1
28    14    15    ar
29    14    45    1
30    16    33    ar
31    16    17    1
32    17    18    1
33    18    19    1
34    18    46    1
35    18    47    1
36    19    20    1
37    19    48    1
38    19    49    1
39    20    23    1
40    20    21    1
41    20    24    1
42    21    22    1
43    21    50    1
44    21    51    1
45    22    23    1
46    22    52    1
47    22    53    1
48    23    54    1
49    23    55    1
50    24    33    1
51    24    25    1
52    25    26    2
53    25    56    1
54    26    27    1
55    26    30    1
56    27    28    ar
57    27    29    ar
58    30    31    2
59    30    32    1
60    32    33    ar
@<TRIPOS>SUBSTRUCTURE
1   ZINC000059223658 1     RESIDUE    1   A     ZIN   1
