@<TRIPOS>MOLECULE
ZINC000002189774
56    61    1     0     0
SMALL
USER_CHARGES
@<TRIPOS>ATOM
1      O1      0.0015   -0.0044    0.0027 O.2      1 ZINC000002189774   -0.5000
2      C2     -0.0146    1.2083    0.0137 C.2      1 ZINC000002189774    0.5300
3      C3      1.2804    1.9790    0.0164 C.3      1 ZINC000002189774   -0.1600
4      S4      2.6716    0.8212    0.0014 S.3      1 ZINC000002189774    0.1200
5      C5      4.0168    1.9592    0.0074 C.ar     1 ZINC000002189774    0.2400
6      N6      5.2600    1.4970   -0.0064 N.ar     1 ZINC000002189774   -0.4800
7      C7      6.2739    2.3574   -0.0023 C.ar     1 ZINC000002189774    0.3700
8      C8      5.9817    3.7365    0.0166 C.ar     1 ZINC000002189774    0.0000
9      N9      4.7178    4.1344    0.0299 N.ar     1 ZINC000002189774   -0.1300
10     N10     3.7664    3.2648    0.0200 N.ar     1 ZINC000002189774   -0.3100
11     C11     7.2790    4.4345    0.0160 C.ar     1 ZINC000002189774   -0.0800
12     C12     8.2652    3.4365   -0.0031 C.ar     1 ZINC000002189774    0.1600
13     C13     9.6066    3.8045   -0.0081 C.ar     1 ZINC000002189774   -0.1300
14     C14     9.9570    5.1377    0.0057 C.ar     1 ZINC000002189774   -0.0700
15     C15     8.9815    6.1226    0.0250 C.ar     1 ZINC000002189774   -0.1400
16     C16     7.6470    5.7779    0.0291 C.ar     1 ZINC000002189774   -0.0400
17     N17     7.6378    2.2013   -0.0138 N.pl3    1 ZINC000002189774   -0.4700
18     C18     8.3316    0.9112   -0.0348 C.3      1 ZINC000002189774    0.1500
19     C19     8.5799    0.4512    1.3787 C.ar     1 ZINC000002189774   -0.1200
20     C20     9.7456    0.8120    2.0282 C.ar     1 ZINC000002189774   -0.1000
21     C21     9.9734    0.3902    3.3247 C.ar     1 ZINC000002189774   -0.1200
22     C22     9.0353   -0.3921    3.9719 C.ar     1 ZINC000002189774   -0.1100
23     C23     7.8692   -0.7522    3.3227 C.ar     1 ZINC000002189774   -0.1200
24     C24     7.6395   -0.3267    2.0277 C.ar     1 ZINC000002189774   -0.0900
25     N25    -1.1906    1.8666    0.0178 N.am     1 ZINC000002189774   -0.6600
26     C26    -2.3883    1.1568   -0.0857 C.ar     1 ZINC000002189774    0.1400
27     C27    -3.4820    1.7048   -0.7889 C.ar     1 ZINC000002189774   -0.0600
28     C28    -3.3977    2.9665   -1.3982 C.ar     1 ZINC000002189774   -0.1100
29     C29    -4.4729    3.4642   -2.0691 C.ar     1 ZINC000002189774   -0.1100
30     C30    -5.6594    2.7391   -2.1604 C.ar     1 ZINC000002189774   -0.1200
31     C31    -5.7773    1.5129   -1.5817 C.ar     1 ZINC000002189774   -0.1000
32     C32    -4.6876    0.9664   -0.8815 C.ar     1 ZINC000002189774   -0.0400
33     C33    -4.7735   -0.2968   -0.2722 C.ar     1 ZINC000002189774   -0.1200
34     C34    -3.7021   -0.8018    0.3994 C.ar     1 ZINC000002189774   -0.1000
35     C35    -2.5112   -0.0880    0.4931 C.ar     1 ZINC000002189774   -0.1200
36     H36     1.3270    2.6144   -0.8680 H        1 ZINC000002189774    0.1300
37     H37     1.3328    2.5983    0.9119 H        1 ZINC000002189774    0.1300
38     H38    10.3744    3.0450   -0.0223 H        1 ZINC000002189774    0.1300
39     H39    11.0001    5.4172    0.0018 H        1 ZINC000002189774    0.1400
40     H40     9.2683    7.1638    0.0364 H        1 ZINC000002189774    0.1400
41     H41     6.8889    6.5470    0.0439 H        1 ZINC000002189774    0.1400
42     H42     7.7161    0.1760   -0.5532 H        1 ZINC000002189774    0.1100
43     H43     9.2837    1.0191   -0.5543 H        1 ZINC000002189774    0.1100
44     H44    10.4786    1.4232    1.5225 H        1 ZINC000002189774    0.1200
45     H45    10.8845    0.6715    3.8319 H        1 ZINC000002189774    0.1300
46     H46     9.2136   -0.7223    4.9846 H        1 ZINC000002189774    0.1300
47     H47     7.1364   -1.3636    3.8282 H        1 ZINC000002189774    0.1300
48     H48     6.7284   -0.6080    1.5205 H        1 ZINC000002189774    0.1300
49     H49    -1.2048    2.8336    0.0928 H        1 ZINC000002189774    0.4100
50     H50    -2.4846    3.5398   -1.3349 H        1 ZINC000002189774    0.1200
51     H51    -4.4053    4.4352   -2.5370 H        1 ZINC000002189774    0.1200
52     H52    -6.4979    3.1565   -2.6980 H        1 ZINC000002189774    0.1300
53     H53    -6.7032    0.9626   -1.6599 H        1 ZINC000002189774    0.1300
54     H54    -5.6888   -0.8665   -0.3361 H        1 ZINC000002189774    0.1300
55     H55    -3.7769   -1.7734    0.8651 H        1 ZINC000002189774    0.1300
56     H56    -1.6760   -0.5112    1.0313 H        1 ZINC000002189774    0.1400
@<TRIPOS>BOND
1     1     2     2
2     2     3     1
3     2     25    am
4     3     4     1
5     3     36    1
6     3     37    1
7     4     5     1
8     5     10    ar
9     5     6     ar
10    6     7     ar
11    7     17    1
12    7     8     ar
13    8     9     ar
14    8     11    1
15    9     10    ar
16    11    16    ar
17    11    12    ar
18    12    13    ar
19    12    17    1
20    13    14    ar
21    13    38    1
22    14    15    ar
23    14    39    1
24    15    16    ar
25    15    40    1
26    16    41    1
27    17    18    1
28    18    19    1
29    18    42    1
30    18    43    1
31    19    24    ar
32    19    20    ar
33    20    21    ar
34    20    44    1
35    21    22    ar
36    21    45    1
37    22    23    ar
38    22    46    1
39    23    24    ar
40    23    47    1
41    24    48    1
42    25    26    1
43    25    49    1
44    26    35    ar
45    26    27    ar
46    27    32    ar
47    27    28    ar
48    28    29    ar
49    28    50    1
50    29    30    ar
51    29    51    1
52    30    31    ar
53    30    52    1
54    31    32    ar
55    31    53    1
56    32    33    ar
57    33    34    ar
58    33    54    1
59    34    35    ar
60    34    55    1
61    35    56    1
@<TRIPOS>SUBSTRUCTURE
1   ZINC000002189774 1     RESIDUE    1   A     ZIN   1
