@<TRIPOS>MOLECULE
ZINC000019365397
49    48    1     0     0
SMALL
USER_CHARGES
@<TRIPOS>ATOM
1      C1     -0.8596    1.8794   -0.9546 C.3      1 ZINC000019365397   -0.0500
2      N2     -0.5536    0.4673   -0.6890 N.4      1 ZINC000019365397   -0.3900
3      H3     -0.1205    0.0581   -1.5033 H        1 ZINC000019365397    0.4300
4      C4      0.3643    0.3717    0.4540 C.3      1 ZINC000019365397   -0.0600
5      C5     -1.7960   -0.2534   -0.3809 C.3      1 ZINC000019365397   -0.0100
6      C6     -1.4953   -1.7456   -0.2270 C.3      1 ZINC000019365397    0.0100
7      N7     -2.7507   -2.4792   -0.0181 N.3      1 ZINC000019365397   -0.5200
8      C8     -2.5640   -3.9181   -0.2471 C.3      1 ZINC000019365397    0.0100
9      C9     -2.2411   -4.1621   -1.7226 C.3      1 ZINC000019365397   -0.0100
10     N10    -2.0545   -5.6011   -1.9516 N.4      1 ZINC000019365397   -0.3900
11     H11    -1.3491   -5.9531   -1.3218 H        1 ZINC000019365397    0.4300
12     C12    -3.3216   -6.3038   -1.7097 C.3      1 ZINC000019365397   -0.0500
13     C13    -1.6276   -5.8247   -3.3393 C.3      1 ZINC000019365397   -0.0500
14     C14    -3.2916   -2.2255    1.3240 C.3      1 ZINC000019365397    0.0200
15     C15    -4.7544   -2.6708    1.3768 C.3      1 ZINC000019365397   -0.0100
16     N16    -5.2848   -2.4506    2.7289 N.4      1 ZINC000019365397   -0.3900
17     H17    -4.6968   -2.9197    3.4014 H        1 ZINC000019365397    0.4300
18     C18    -5.3063   -1.0104    3.0178 C.3      1 ZINC000019365397   -0.0500
19     C19    -6.6496   -2.9873    2.8130 C.3      1 ZINC000019365397   -0.0500
20     H20     0.0623    2.4141   -1.1832 H        1 ZINC000019365397    0.1300
21     H21    -1.5406    1.9503   -1.8026 H        1 ZINC000019365397    0.1300
22     H22    -1.3274    2.3214   -0.0749 H        1 ZINC000019365397    0.1300
23     H23    -0.1036    0.8138    1.3336 H        1 ZINC000019365397    0.1300
24     H24     0.5913   -0.6760    0.6510 H        1 ZINC000019365397    0.1200
25     H25     1.2862    0.9065    0.2253 H        1 ZINC000019365397    0.1400
26     H26    -2.2176    0.1300    0.5483 H        1 ZINC000019365397    0.1300
27     H27    -2.5106   -0.1084   -1.1911 H        1 ZINC000019365397    0.1500
28     H28    -1.0059   -2.1125   -1.1292 H        1 ZINC000019365397    0.1100
29     H29    -0.8388   -1.8975    0.6298 H        1 ZINC000019365397    0.0800
30     H30    -1.7415   -4.2805    0.3696 H        1 ZINC000019365397    0.0800
31     H31    -3.4781   -4.4497    0.0175 H        1 ZINC000019365397    0.1100
32     H32    -3.0637   -3.7997   -2.3392 H        1 ZINC000019365397    0.1500
33     H33    -1.3271   -3.6305   -1.9872 H        1 ZINC000019365397    0.1300
34     H34    -3.1830   -7.3715   -1.8796 H        1 ZINC000019365397    0.1400
35     H35    -3.6383   -6.1379   -0.6800 H        1 ZINC000019365397    0.1200
36     H36    -4.0836   -5.9235   -2.3900 H        1 ZINC000019365397    0.1300
37     H37    -0.6874   -5.3033   -3.5188 H        1 ZINC000019365397    0.1300
38     H38    -1.4891   -6.8924   -3.5092 H        1 ZINC000019365397    0.1400
39     H39    -2.3896   -5.4444   -4.0196 H        1 ZINC000019365397    0.1300
40     H40    -2.7146   -2.7852    2.0600 H        1 ZINC000019365397    0.0800
41     H41    -3.2279   -1.1602    1.5460 H        1 ZINC000019365397    0.1100
42     H42    -5.3365   -2.0923    0.6595 H        1 ZINC000019365397    0.1400
43     H43    -4.8209   -3.7301    1.1286 H        1 ZINC000019365397    0.1300
44     H44    -5.9415   -0.5036    2.2914 H        1 ZINC000019365397    0.1300
45     H45    -5.6998   -0.8469    4.0211 H        1 ZINC000019365397    0.1400
46     H46    -4.2936   -0.6121    2.9554 H        1 ZINC000019365397    0.1200
47     H47    -6.6336   -4.0559    2.5987 H        1 ZINC000019365397    0.1300
48     H48    -7.0431   -2.8239    3.8163 H        1 ZINC000019365397    0.1400
49     H49    -7.2848   -2.4805    2.0866 H        1 ZINC000019365397    0.1300
@<TRIPOS>BOND
1     1     2     1
2     1     20    1
3     1     21    1
4     1     22    1
5     2     3     1
6     2     4     1
7     2     5     1
8     4     23    1
9     4     24    1
10    4     25    1
11    5     6     1
12    5     26    1
13    5     27    1
14    6     7     1
15    6     28    1
16    6     29    1
17    7     8     1
18    7     14    1
19    8     9     1
20    8     30    1
21    8     31    1
22    9     10    1
23    9     32    1
24    9     33    1
25    10    11    1
26    10    12    1
27    10    13    1
28    12    34    1
29    12    35    1
30    12    36    1
31    13    37    1
32    13    38    1
33    13    39    1
34    14    15    1
35    14    40    1
36    14    41    1
37    15    16    1
38    15    42    1
39    15    43    1
40    16    17    1
41    16    18    1
42    16    19    1
43    18    44    1
44    18    45    1
45    18    46    1
46    19    47    1
47    19    48    1
48    19    49    1
@<TRIPOS>SUBSTRUCTURE
1   ZINC000019365397 1     RESIDUE    1   A     ZIN   1
