@<TRIPOS>MOLECULE
ZINC000040898122
  40   41    0    0    0
SMALL
USER_CHARGES
NO_NAME
@<TRIPOS>ATOM
    1 C1        0.9114     1.3383     0.0781 C.3    1 <0>      -0.1200
    2 C2        0.3978    -0.0778     0.0325 C.ar   1 <0>      -0.1100
    3 C3        0.3527    -0.7583    -1.1681 C.ar   1 <0>      -0.1000
    4 C4       -0.1190    -2.0578    -1.2108 C.ar   1 <0>      -0.1300
    5 C5       -0.5463    -2.6799    -0.0523 C.ar   1 <0>      -0.1100
    6 C6       -0.5034    -2.0050     1.1520 C.ar   1 <0>      -0.1400
    7 C7       -0.0254    -0.7018     1.1993 C.ar   1 <0>       0.1400
    8 N8        0.0194    -0.0158     2.4166 N.pl3  1 <0>      -0.6100
    9 C9       -0.0748    -0.7116     3.6047 C.ar   1 <0>       0.5200
   10 N10      -0.0583    -2.0392     3.6135 N.ar   1 <0>      -0.6100
   11 C11      -0.1485    -2.7108     4.7520 C.ar   1 <0>       0.6100
   12 N12      -0.1276    -4.0897     4.7179 N.pl3  1 <0>      -0.7000
   13 C13      -0.2260    -4.8547     5.9634 C.3    1 <0>       0.1100
   14 C14      -0.1790    -6.3511     5.6478 C.3    1 <0>      -0.0200
   15 N15      -0.2776    -7.1183     6.8967 N.4    1 <0>      -0.6300
   16 H16      -0.2466    -8.1051     6.6886 H      1 <0>       0.4400
   17 H17       0.4937    -6.8776     7.5011 H      1 <0>       0.4400
   18 H18      -1.1477    -6.8990     7.3583 H      1 <0>       0.4400
   19 N19      -0.2581    -2.0981     5.9244 N.ar   1 <0>      -0.6100
   20 C20      -0.2824    -0.7804     6.0063 C.ar   1 <0>       0.2600
   21 C21      -0.1848    -0.0243     4.8334 C.ar   1 <0>      -0.3500
   22 C22      -0.2076     1.4467     4.8777 C.2    1 <0>       0.5900
   23 N23      -0.2224     2.0850     6.0647 N.am   1 <0>      -0.8400
   24 O24      -0.2132     2.0863     3.8432 O.2    1 <0>      -0.5500
   25 H25       1.9882     1.3290     0.2471 H      1 <0>       0.0700
   26 H26       0.6966     1.8333    -0.8690 H      1 <0>       0.0800
   27 H27       0.4209     1.8768     0.8890 H      1 <0>       0.0600
   28 H28       0.6857    -0.2753    -2.0748 H      1 <0>       0.1300
   29 H29      -0.1539    -2.5877    -2.1513 H      1 <0>       0.1200
   30 H30      -0.9144    -3.6946    -0.0892 H      1 <0>       0.1200
   31 H31      -0.8377    -2.4913     2.0565 H      1 <0>       0.1600
   32 H32       0.1167     0.9493     2.4262 H      1 <0>       0.4400
   33 H33      -0.0477    -4.5527     3.8693 H      1 <0>       0.4200
   34 H34       0.6073    -4.5948     6.6163 H      1 <0>       0.0900
   35 H35      -1.1659    -4.6179     6.4620 H      1 <0>       0.0900
   36 H36      -1.0122    -6.6111     4.9950 H      1 <0>       0.1400
   37 H37       0.7609    -6.5879     5.1492 H      1 <0>       0.1400
   38 H38      -0.3723    -0.2931     6.9659 H      1 <0>       0.1800
   39 H39      -0.2180     1.5749     6.8897 H      1 <0>       0.4000
   40 H40      -0.2375     3.0544     6.0939 H      1 <0>       0.4100
@<TRIPOS>BOND
   1    1    2 1
   2    1   25 1
   3    1   26 1
   4    1   27 1
   5    2    7 ar
   6    2    3 ar
   7    3    4 ar
   8    3   28 1
   9    4    5 ar
  10    4   29 1
  11    5    6 ar
  12    5   30 1
  13    6    7 ar
  14    6   31 1
  15    7    8 1
  16    8    9 1
  17    8   32 1
  18    9   21 ar
  19    9   10 ar
  20   10   11 ar
  21   11   12 1
  22   11   19 ar
  23   12   13 1
  24   12   33 1
  25   13   14 1
  26   13   34 1
  27   13   35 1
  28   14   15 1
  29   14   36 1
  30   14   37 1
  31   15   16 1
  32   15   17 1
  33   15   18 1
  34   19   20 ar
  35   20   21 ar
  36   20   38 1
  37   21   22 1
  38   22   23 am
  39   22   24 2
  40   23   39 1
  41   23   40 1
