@<TRIPOS>MOLECULE
ZINC000000602803
57    59    1     0     0
SMALL
USER_CHARGES
@<TRIPOS>ATOM
1      C1      4.1572   -2.2833    1.1872 C.3      1 ZINC000000602803   -0.1500
2      C2      3.1236   -3.1630    0.4810 C.3      1 ZINC000000602803    0.0500
3      O3      1.9718   -3.3071    1.3143 O.3      1 ZINC000000602803   -0.3100
4      C4      0.9523   -4.0642    0.8318 C.ar     1 ZINC000000602803    0.1500
5      C5     -0.2081   -4.2382    1.6018 C.ar     1 ZINC000000602803    0.1200
6      N6     -0.3058   -3.6311    2.8593 N.am     1 ZINC000000602803   -0.6500
7      C7     -1.1224   -4.1510    3.7970 C.2      1 ZINC000000602803    0.5300
8      O8     -1.6923   -5.2054    3.5902 O.2      1 ZINC000000602803   -0.5100
9      C9     -1.3245   -3.4433    5.0703 C.2      1 ZINC000000602803   -0.1300
10     C10    -2.1305   -3.9564    5.9958 C.2      1 ZINC000000602803   -0.1400
11     C11    -2.3375   -3.2312    7.3005 C.3      1 ZINC000000602803    0.0200
12     N12    -3.7737   -3.0081    7.5142 N.4      1 ZINC000000602803   -0.3900
13     H13    -4.2624   -3.8893    7.4617 H        1 ZINC000000602803    0.4300
14     C14    -3.9844   -2.4095    8.8390 C.3      1 ZINC000000602803   -0.0500
15     C15    -4.2875   -2.1008    6.4794 C.3      1 ZINC000000602803   -0.0500
16     C16    -1.2512   -5.0020    1.1280 C.ar     1 ZINC000000602803   -0.0600
17     C17    -1.1514   -5.6094   -0.1319 C.ar     1 ZINC000000602803   -0.1300
18     C18     0.0186   -5.4356   -0.9103 C.ar     1 ZINC000000602803    0.1900
19     C19     1.0660   -4.6477   -0.4088 C.ar     1 ZINC000000602803   -0.1800
20     N20     0.1188   -6.0137   -2.1165 N.ar     1 ZINC000000602803   -0.4700
21     C21    -0.8418   -6.7488   -2.6157 C.ar     1 ZINC000000602803    0.2000
22     C22    -2.0366   -6.9746   -1.9135 C.ar     1 ZINC000000602803   -0.1000
23     C23    -3.0701   -7.7842   -2.4854 C.1      1 ZINC000000602803    0.2500
24     N24    -3.8900   -8.4265   -2.9390 N.1      1 ZINC000000602803   -0.3900
25     C25    -2.2066   -6.3991   -0.6451 C.ar     1 ZINC000000602803    0.2800
26     N26    -3.3658   -6.5970    0.0779 N.pl3    1 ZINC000000602803   -0.7000
27     C27    -3.6805   -7.8716    0.5596 C.ar     1 ZINC000000602803    0.1800
28     C28    -2.6673   -8.7356    0.9537 C.ar     1 ZINC000000602803   -0.1200
29     C29    -2.9798   -9.9942    1.4298 C.ar     1 ZINC000000602803   -0.1100
30     C30    -4.3021  -10.3951    1.5139 C.ar     1 ZINC000000602803    0.0900
31     F31    -4.6053  -11.6265    1.9798 F        1 ZINC000000602803   -0.1200
32     C32    -5.3154   -9.5348    1.1212 C.ar     1 ZINC000000602803   -0.0400
33     Cl33   -6.9728  -10.0404    1.2278 Cl       1 ZINC000000602803   -0.0400
34     C34    -5.0073   -8.2729    0.6498 C.ar     1 ZINC000000602803   -0.1200
35     H35     5.0358   -2.1734    0.5515 H        1 ZINC000000602803    0.0900
36     H36     3.7256   -1.3019    1.3835 H        1 ZINC000000602803    0.0700
37     H37     4.4466   -2.7481    2.1297 H        1 ZINC000000602803    0.0700
38     H38     2.8343   -2.6982   -0.4616 H        1 ZINC000000602803    0.0700
39     H39     3.5552   -4.1445    0.2847 H        1 ZINC000000602803    0.0700
40     H40     0.2142   -2.8362    3.0558 H        1 ZINC000000602803    0.4200
41     H41    -0.8185   -2.5070    5.2539 H        1 ZINC000000602803    0.1400
42     H42    -2.6365   -4.8927    5.8121 H        1 ZINC000000602803    0.1500
43     H43    -1.9376   -3.8319    8.1174 H        1 ZINC000000602803    0.1500
44     H44    -1.8215   -2.2716    7.2687 H        1 ZINC000000602803    0.1400
45     H45    -3.4565   -1.4576    8.8957 H        1 ZINC000000602803    0.1200
46     H46    -5.0501   -2.2440    8.9975 H        1 ZINC000000602803    0.1300
47     H47    -3.6031   -3.0827    9.6067 H        1 ZINC000000602803    0.1300
48     H48    -4.1311   -2.5450    5.4964 H        1 ZINC000000602803    0.1200
49     H49    -5.3532   -1.9353    6.6380 H        1 ZINC000000602803    0.1300
50     H50    -3.7596   -1.1489    6.5362 H        1 ZINC000000602803    0.1200
51     H51    -2.1421   -5.1330    1.7243 H        1 ZINC000000602803    0.1600
52     H52     1.9638   -4.5070   -0.9923 H        1 ZINC000000602803    0.1600
53     H53    -0.7126   -7.1924   -3.5919 H        1 ZINC000000602803    0.1800
54     H54    -3.9621   -5.8519    0.2518 H        1 ZINC000000602803    0.4200
55     H55    -1.6353   -8.4239    0.8878 H        1 ZINC000000602803    0.1400
56     H56    -2.1918  -10.6661    1.7363 H        1 ZINC000000602803    0.1500
57     H57    -5.7968   -7.6024    0.3441 H        1 ZINC000000602803    0.1500
@<TRIPOS>BOND
1     1     2     1
2     1     35    1
3     1     36    1
4     1     37    1
5     2     3     1
6     2     38    1
7     2     39    1
8     3     4     1
9     4     19    ar
10    4     5     ar
11    5     6     1
12    5     16    ar
13    6     7     am
14    6     40    1
15    7     8     2
16    7     9     1
17    9     10    2
18    9     41    1
19    10    11    1
20    10    42    1
21    11    12    1
22    11    43    1
23    11    44    1
24    12    13    1
25    12    14    1
26    12    15    1
27    14    45    1
28    14    46    1
29    14    47    1
30    15    48    1
31    15    49    1
32    15    50    1
33    16    17    ar
34    16    51    1
35    17    25    ar
36    17    18    ar
37    18    19    ar
38    18    20    ar
39    19    52    1
40    20    21    ar
41    21    22    ar
42    21    53    1
43    22    23    1
44    22    25    ar
45    23    24    3
46    25    26    1
47    26    27    1
48    26    54    1
49    27    34    ar
50    27    28    ar
51    28    29    ar
52    28    55    1
53    29    30    ar
54    29    56    1
55    30    31    1
56    30    32    ar
57    32    33    1
58    32    34    ar
59    34    57    1
@<TRIPOS>SUBSTRUCTURE
1   ZINC000000602803 1     RESIDUE    1   A     ZIN   1
