@<TRIPOS>MOLECULE
ZINC000000136948
  28   30    0    0    0
SMALL
USER_CHARGES
NO_NAME
@<TRIPOS>ATOM
    1 O1        0.0613     0.0740     0.7321 O.2    1 <0>      -0.4900
    2 C2        0.0215     1.2601     0.4614 C.2    1 <0>       0.5500
    3 N3       -1.0786     2.0320     0.4507 N.am   1 <0>      -0.6500
    4 C4       -0.7760     3.3423     0.0987 C.ar   1 <0>       0.1500
    5 C5       -1.5765     4.4703    -0.0415 C.ar   1 <0>      -0.1400
    6 C6       -1.0155     5.6767    -0.4100 C.ar   1 <0>      -0.0800
    7 C7        0.3452     5.7796    -0.6438 C.ar   1 <0>      -0.1400
    8 C8        1.1563     4.6702    -0.5096 C.ar   1 <0>      -0.0600
    9 C9        0.6009     3.4509    -0.1385 C.ar   1 <0>      -0.1100
   10 C10       1.1721     2.1045     0.0936 C.2    1 <0>      -0.1500
   11 C11       2.4782     1.7275    -0.0121 C.2    1 <0>       0.0200
   12 C12       2.8433     0.3097     0.0905 C.ar   1 <0>      -0.0800
   13 C13       2.0382    -0.6692    -0.5050 C.ar   1 <0>      -0.0300
   14 C14       2.3876    -1.9985    -0.4050 C.ar   1 <0>      -0.1000
   15 C15       3.5319    -2.3682     0.2829 C.ar   1 <0>      -0.0100
   16 Cl16      3.9628    -4.0456     0.4036 Cl     1 <0>      -0.0400
   17 C17       4.3353    -1.4050     0.8754 C.ar   1 <0>      -0.0400
   18 Cl18      5.7671    -1.8804     1.7343 Cl     1 <0>      -0.0500
   19 C19       4.0019    -0.0706     0.7795 C.ar   1 <0>      -0.0700
   20 H20      -1.9706     1.7150     0.6619 H      1 <0>       0.4200
   21 H21      -2.6394     4.4026     0.1378 H      1 <0>       0.1300
   22 H22      -1.6441     6.5484    -0.5172 H      1 <0>       0.1300
   23 H23       0.7727     6.7286    -0.9319 H      1 <0>       0.1300
   24 H24       2.2179     4.7495    -0.6918 H      1 <0>       0.1300
   25 H25       3.2440     2.4722    -0.1714 H      1 <0>       0.1500
   26 H26       1.1454    -0.3830    -1.0411 H      1 <0>       0.1400
   27 H27       1.7673    -2.7542    -0.8639 H      1 <0>       0.1500
   28 H28       4.6281     0.6785     1.2411 H      1 <0>       0.1500
@<TRIPOS>BOND
   1    1    2 2
   2    2   10 1
   3    2    3 am
   4    3    4 1
   5    3   20 1
   6    4    9 ar
   7    4    5 ar
   8    5    6 ar
   9    5   21 1
  10    6    7 ar
  11    6   22 1
  12    7    8 ar
  13    7   23 1
  14    8    9 ar
  15    8   24 1
  16    9   10 1
  17   10   11 2
  18   11   12 1
  19   11   25 1
  20   12   19 ar
  21   12   13 ar
  22   13   14 ar
  23   13   26 1
  24   14   15 ar
  25   14   27 1
  26   15   16 1
  27   15   17 ar
  28   17   18 1
  29   17   19 ar
  30   19   28 1
