@<TRIPOS>MOLECULE
ZINC000049745945
76    81    1     0     0
SMALL
USER_CHARGES
@<TRIPOS>ATOM
1      C1     -0.6219    4.2129   -0.8910 C.3      1 ZINC000049745945   -0.1700
2      C2     -0.2352    2.7739   -0.5435 C.3      1 ZINC000049745945    0.1300
3      N3     -1.4480    1.9779   -0.3399 N.pl3    1 ZINC000049745945   -0.3800
4      N4     -2.1369    1.7935    0.8685 N.2      1 ZINC000049745945    0.0000
5      N5     -3.1566    1.0339    0.6670 N.2      1 ZINC000049745945   -0.1800
6      C6     -3.2181    0.6748   -0.6263 C.ar     1 ZINC000049745945   -0.1400
7      C7     -4.1012   -0.1256   -1.3814 C.ar     1 ZINC000049745945    0.4700
8      N8     -5.1874   -0.7353   -0.7829 N.3      1 ZINC000049745945   -0.4600
9      C9     -4.7626   -1.5845    0.3394 C.3      1 ZINC000049745945    0.0200
10     C10    -5.9982   -2.1916    1.0091 C.3      1 ZINC000049745945    0.0600
11     O11    -6.7532   -2.9182    0.0358 O.3      1 ZINC000049745945   -0.3800
12     C12    -7.1837   -2.1215   -1.0710 C.3      1 ZINC000049745945    0.0600
13     C13    -5.9601   -1.5137   -1.7619 C.3      1 ZINC000049745945    0.0200
14     N14    -3.8672   -0.2801   -2.6774 N.ar     1 ZINC000049745945   -0.5600
15     C15    -2.8254    0.3024   -3.2632 C.ar     1 ZINC000049745945    0.4500
16     C16    -2.6124    0.0952   -4.7147 C.ar     1 ZINC000049745945   -0.0700
17     C17    -3.4999   -0.6951   -5.4453 C.ar     1 ZINC000049745945   -0.0400
18     C18    -3.2995   -0.8863   -6.7952 C.ar     1 ZINC000049745945   -0.1600
19     C19    -2.2140   -0.2923   -7.4290 C.ar     1 ZINC000049745945    0.1900
20     N20    -2.0134   -0.4873   -8.7976 N.am     1 ZINC000049745945   -0.6800
21     C21    -0.7616   -0.5420   -9.2941 C.2      1 ZINC000049745945    0.7000
22     O22     0.1926   -0.5202   -8.5410 O.2      1 ZINC000049745945   -0.5500
23     N23    -0.5676   -0.6208  -10.6255 N.am     1 ZINC000049745945   -0.6800
24     C24     0.7197   -0.7893  -11.1336 C.ar     1 ZINC000049745945    0.1900
25     C25     1.6530   -1.5394  -10.4249 C.ar     1 ZINC000049745945   -0.1200
26     C26     2.9248   -1.7082  -10.9240 C.ar     1 ZINC000049745945   -0.0400
27     C27     3.2781   -1.1251  -12.1440 C.ar     1 ZINC000049745945   -0.1500
28     C28     4.6405   -1.3043  -12.6823 C.2      1 ZINC000049745945    0.5600
29     O29     5.1987   -2.3795  -12.5783 O.2      1 ZINC000049745945   -0.5300
30     N30     5.2659   -0.2762  -13.2892 N.am     1 ZINC000049745945   -0.6100
31     C31     4.6630    1.0650  -13.3149 C.3      1 ZINC000049745945    0.1000
32     C32     5.7033    2.0760  -12.8210 C.3      1 ZINC000049745945    0.0400
33     N33     6.9338    1.9329  -13.6107 N.3      1 ZINC000049745945   -0.5400
34     C34     7.8943    2.9958  -13.2859 C.3      1 ZINC000049745945    0.0200
35     C35     7.5348    0.6054  -13.4249 C.3      1 ZINC000049745945    0.0400
36     C36     6.5723   -0.4644  -13.9382 C.3      1 ZINC000049745945    0.1200
37     C37     2.3382   -0.3723  -12.8533 C.ar     1 ZINC000049745945   -0.0700
38     C38     1.0666   -0.2119  -12.3511 C.ar     1 ZINC000049745945   -0.1500
39     C39    -1.3280    0.4957   -6.7031 C.ar     1 ZINC000049745945   -0.1300
40     C40    -1.5272    0.6947   -5.3541 C.ar     1 ZINC000049745945   -0.0400
41     N41    -1.9721    1.0617   -2.5934 N.ar     1 ZINC000049745945   -0.5400
42     C42    -2.1332    1.2742   -1.2917 C.ar     1 ZINC000049745945    0.3300
43     H43     0.2805    4.8051   -1.0425 H        1 ZINC000049745945    0.0900
44     H44    -1.2178    4.2186   -1.8037 H        1 ZINC000049745945    0.0600
45     H45    -1.2039    4.6399   -0.0743 H        1 ZINC000049745945    0.0700
46     H46     0.3469    2.3468   -1.3601 H        1 ZINC000049745945    0.1100
47     H47     0.3607    2.7681    0.3692 H        1 ZINC000049745945    0.1100
48     H48    -4.1202   -2.3833   -0.0314 H        1 ZINC000049745945    0.0600
49     H49    -4.2145   -0.9826    1.0642 H        1 ZINC000049745945    0.1100
50     H50    -5.6857   -2.8669    1.8057 H        1 ZINC000049745945    0.1100
51     H51    -6.6140   -1.3952    1.4270 H        1 ZINC000049745945    0.0700
52     H52    -7.7285   -2.7460   -1.7790 H        1 ZINC000049745945    0.1100
53     H53    -7.8339   -1.3230   -0.7137 H        1 ZINC000049745945    0.0600
54     H54    -6.2861   -0.8600   -2.5709 H        1 ZINC000049745945    0.1000
55     H55    -5.3368   -2.3113   -2.1662 H        1 ZINC000049745945    0.0700
56     H56    -4.3431   -1.1570   -4.9533 H        1 ZINC000049745945    0.1400
57     H57    -3.9861   -1.4983   -7.3612 H        1 ZINC000049745945    0.1300
58     H58    -2.7750   -0.5834   -9.3905 H        1 ZINC000049745945    0.4100
59     H59    -1.3236   -0.5603  -11.2302 H        1 ZINC000049745945    0.4100
60     H60     1.3795   -1.9895   -9.4820 H        1 ZINC000049745945    0.1400
61     H61     3.6489   -2.2902  -10.3732 H        1 ZINC000049745945    0.1400
62     H62     4.3658    1.3135  -14.3337 H        1 ZINC000049745945    0.0800
63     H63     3.7914    1.0873  -12.6606 H        1 ZINC000049745945    0.1000
64     H64     5.3121    3.0867  -12.9372 H        1 ZINC000049745945    0.0900
65     H65     5.9220    1.8887  -11.7697 H        1 ZINC000049745945    0.0400
66     H66     8.1501    2.9434  -12.2276 H        1 ZINC000049745945    0.0300
67     H67     8.7960    2.8660  -13.8845 H        1 ZINC000049745945    0.0700
68     H68     7.4496    3.9666  -13.5045 H        1 ZINC000049745945    0.0700
69     H69     8.4718    0.5496  -13.9790 H        1 ZINC000049745945    0.0900
70     H70     7.7279    0.4386  -12.3652 H        1 ZINC000049745945    0.0400
71     H71     6.9628   -1.4535  -13.6988 H        1 ZINC000049745945    0.1000
72     H72     6.4561   -0.3650  -15.0174 H        1 ZINC000049745945    0.0800
73     H73     2.6080    0.0796  -13.7963 H        1 ZINC000049745945    0.1400
74     H74     0.3397    0.3694  -12.8989 H        1 ZINC000049745945    0.1300
75     H75    -0.4853    0.9558   -7.1977 H        1 ZINC000049745945    0.1400
76     H76    -0.8389    1.3073   -4.7907 H        1 ZINC000049745945    0.1400
@<TRIPOS>BOND
1     1     2     1
2     1     43    1
3     1     44    1
4     1     45    1
5     2     3     1
6     2     46    1
7     2     47    1
8     3     42    1
9     3     4     1
10    4     5     2
11    5     6     1
12    6     42    ar
13    6     7     ar
14    7     8     1
15    7     14    ar
16    8     13    1
17    8     9     1
18    9     10    1
19    9     48    1
20    9     49    1
21    10    11    1
22    10    50    1
23    10    51    1
24    11    12    1
25    12    13    1
26    12    52    1
27    12    53    1
28    13    54    1
29    13    55    1
30    14    15    ar
31    15    16    1
32    15    41    ar
33    16    40    ar
34    16    17    ar
35    17    18    ar
36    17    56    1
37    18    19    ar
38    18    57    1
39    19    20    1
40    19    39    ar
41    20    21    am
42    20    58    1
43    21    22    2
44    21    23    am
45    23    24    1
46    23    59    1
47    24    38    ar
48    24    25    ar
49    25    26    ar
50    25    60    1
51    26    27    ar
52    26    61    1
53    27    28    1
54    27    37    ar
55    28    29    2
56    28    30    am
57    30    36    1
58    30    31    1
59    31    32    1
60    31    62    1
61    31    63    1
62    32    33    1
63    32    64    1
64    32    65    1
65    33    34    1
66    33    35    1
67    34    66    1
68    34    67    1
69    34    68    1
70    35    36    1
71    35    69    1
72    35    70    1
73    36    71    1
74    36    72    1
75    37    38    ar
76    37    73    1
77    38    74    1
78    39    40    ar
79    39    75    1
80    40    76    1
81    41    42    ar
@<TRIPOS>SUBSTRUCTURE
1   ZINC000049745945 1     RESIDUE    1   A     ZIN   1
