@<TRIPOS>MOLECULE
ZINC000002047503
45    48    1     0     0
SMALL
USER_CHARGES
@<TRIPOS>ATOM
1      C1      0.6801    1.4233    0.0442 C.3      1 ZINC000002047503    0.0700
2      N2      0.5018   -0.0307    0.0263 N.am     1 ZINC000002047503   -0.5100
3      C3      0.5410   -0.6928   -1.1460 C.2      1 ZINC000002047503    0.5600
4      O4      0.7241   -0.0795   -2.1825 O.2      1 ZINC000002047503   -0.5000
5      C5      0.3650   -2.1463   -1.1810 C.2      1 ZINC000002047503   -0.1600
6      C6      0.4087   -2.8736   -2.4710 C.ar     1 ZINC000002047503   -0.0100
7      C7      1.6198   -3.3699   -2.9550 C.ar     1 ZINC000002047503   -0.0100
8      Cl8     3.0806   -3.1371   -2.0464 Cl       1 ZINC000002047503   -0.0500
9      C9      1.6536   -4.0470   -4.1582 C.ar     1 ZINC000002047503   -0.1100
10     C10     0.4905   -4.2333   -4.8834 C.ar     1 ZINC000002047503   -0.0900
11     C11    -0.7133   -3.7436   -4.4095 C.ar     1 ZINC000002047503   -0.1100
12     C12    -0.7620   -3.0705   -3.2045 C.ar     1 ZINC000002047503   -0.0100
13     Cl13   -2.2737   -2.4566   -2.6114 Cl       1 ZINC000002047503   -0.0500
14     C14     0.1602   -2.8269   -0.0108 C.2      1 ZINC000002047503    0.0300
15     C15     0.1240   -2.1054    1.2042 C.ar     1 ZINC000002047503   -0.2800
16     C16    -0.0824   -2.7559    2.4300 C.ar     1 ZINC000002047503    0.2600
17     N17    -0.1064   -2.0318    3.5333 N.ar     1 ZINC000002047503   -0.5700
18     C18     0.0603   -0.7144    3.4949 C.ar     1 ZINC000002047503    0.6100
19     N19     0.0261   -0.0045    4.6799 N.pl3    1 ZINC000002047503   -0.6300
20     C20    -0.0636   -0.6830    5.8989 C.ar     1 ZINC000002047503    0.1500
21     C21     0.5507   -1.9189    6.0543 C.ar     1 ZINC000002047503   -0.1000
22     C22     0.4601   -2.5867    7.2600 C.ar     1 ZINC000002047503   -0.1000
23     C23    -0.2415   -2.0263    8.3114 C.ar     1 ZINC000002047503   -0.1100
24     C24    -0.8548   -0.7960    8.1599 C.ar     1 ZINC000002047503   -0.0700
25     C25    -1.6189   -0.1893    9.3084 C.3      1 ZINC000002047503    0.1200
26     O26    -0.7375    0.6144   10.0953 O.3      1 ZINC000002047503   -0.5700
27     C27    -0.7626   -0.1200    6.9593 C.ar     1 ZINC000002047503   -0.1200
28     N28     0.2583   -0.0565    2.3629 N.ar     1 ZINC000002047503   -0.6000
29     C29     0.3023   -0.7050    1.2045 C.ar     1 ZINC000002047503    0.4700
30     H30     1.7394    1.6582    0.1486 H        1 ZINC000002047503    0.0700
31     H31     0.3041    1.8469   -0.8871 H        1 ZINC000002047503    0.0900
32     H32     0.1296    1.8465    0.8843 H        1 ZINC000002047503    0.1000
33     H33     2.5903   -4.4316   -4.5340 H        1 ZINC000002047503    0.1400
34     H34     0.5224   -4.7632   -5.8240 H        1 ZINC000002047503    0.1500
35     H35    -1.6177   -3.8918   -4.9809 H        1 ZINC000002047503    0.1400
36     H36     0.0279   -3.8988   -0.0161 H        1 ZINC000002047503    0.1500
37     H37    -0.2190   -3.8265    2.4700 H        1 ZINC000002047503    0.1900
38     H38     0.0643    0.9647    4.6660 H        1 ZINC000002047503    0.4300
39     H39     1.0983   -2.3575    5.2333 H        1 ZINC000002047503    0.1400
40     H40     0.9376   -3.5478    7.3815 H        1 ZINC000002047503    0.1300
41     H41    -0.3111   -2.5507    9.2530 H        1 ZINC000002047503    0.1300
42     H42    -2.4268    0.4309    8.9201 H        1 ZINC000002047503    0.0600
43     H43    -2.0360   -0.9837    9.9273 H        1 ZINC000002047503    0.0600
44     H44    -1.1626    1.0372   10.8540 H        1 ZINC000002047503    0.3800
45     H45    -1.2417    0.8407    6.8416 H        1 ZINC000002047503    0.1300
@<TRIPOS>BOND
1     1     2     1
2     1     30    1
3     1     31    1
4     1     32    1
5     2     29    1
6     2     3     am
7     3     4     2
8     3     5     1
9     5     6     1
10    5     14    2
11    6     12    ar
12    6     7     ar
13    7     8     1
14    7     9     ar
15    9     10    ar
16    9     33    1
17    10    11    ar
18    10    34    1
19    11    12    ar
20    11    35    1
21    12    13    1
22    14    15    1
23    14    36    1
24    15    29    ar
25    15    16    ar
26    16    17    ar
27    16    37    1
28    17    18    ar
29    18    19    1
30    18    28    ar
31    19    20    1
32    19    38    1
33    20    27    ar
34    20    21    ar
35    21    22    ar
36    21    39    1
37    22    23    ar
38    22    40    1
39    23    24    ar
40    23    41    1
41    24    25    1
42    24    27    ar
43    25    26    1
44    25    42    1
45    25    43    1
46    26    44    1
47    27    45    1
48    28    29    ar
@<TRIPOS>SUBSTRUCTURE
1   ZINC000002047503 1     RESIDUE    1   A     ZIN   1
