



@<TRIPOS>MOLECULE
ZINC000000158921
  26   27    0    0    0
SMALL
NO_CHARGES


@<TRIPOS>ATOM
   1 O1            -0.1177     1.5745     0.0498 O.3     
   2 C2            -0.0565     0.1471     0.0178 C.3     
   3 C3            -1.4543    -0.4159     0.0242 C.ar    
   4 C4            -2.0911    -0.6987     1.2246 C.ar    
   5 C5            -3.3750    -1.2143     1.1854 C.ar    
   6 C6            -3.9792    -1.4301    -0.0465 C.ar    
   7 O7            -5.2376    -1.9347    -0.0985 O.3     
   8 C8            -5.8337    -2.0382    -1.3153 C.ar    
   9 C9            -5.4825    -3.0683    -2.1759 C.ar    
  10 C10           -6.0899    -3.1712    -3.4123 C.ar    
  11 C11           -7.0468    -2.2485    -3.7927 C.ar    
  12 C12           -7.3986    -1.2209    -2.9370 C.ar    
  13 C13           -6.7986    -1.1171    -1.6970 C.ar    
  14 N14           -3.3396    -1.1479    -1.1696 N.ar    
  15 C15           -2.1176    -0.6507    -1.1641 C.ar    
  16 H16            0.7479     2.0054     0.0476 H       
  17 H17            0.4605    -0.1742    -0.8864 H       
  18 H18            0.4843    -0.2130     0.8930 H       
  19 H19           -1.5959    -0.5207     2.1677 H       
  20 H20           -3.8998    -1.4461     2.1004 H       
  21 H21           -4.7346    -3.7889    -1.8795 H       
  22 H22           -5.8169    -3.9729    -4.0825 H       
  23 H23           -7.5200    -2.3303    -4.7601 H       
  24 H24           -8.1463    -0.5015    -3.2365 H       
  25 H25           -7.0740    -0.3146    -1.0289 H       
  26 H26           -1.6266    -0.4322    -2.1009 H       
@<TRIPOS>BOND
   1    1    2 1
   2    1   16 1
   3    2    3 1
   4    2   17 1
   5    2   18 1
   6    3   15 ar
   7    3    4 ar
   8    4    5 ar
   9    4   19 1
  10    5    6 ar
  11    5   20 1
  12    6    7 1
  13    6   14 ar
  14    7    8 1
  15    8   13 ar
  16    8    9 ar
  17    9   10 ar
  18    9   21 1
  19   10   11 ar
  20   10   22 1
  21   11   12 ar
  22   11   23 1
  23   12   13 ar
  24   12   24 1
  25   13   25 1
  26   14   15 ar
  27   15   26 1


