@<TRIPOS>MOLECULE
ZINC000096907540
  35   37    0    0    0
SMALL
USER_CHARGES
NO_NAME
@<TRIPOS>ATOM
    1 O1        0.0021    -0.0041     0.0020 O.2    1 <0>      -0.5300
    2 C2       -0.0145     1.2149     0.0087 C.2    1 <0>       0.6500
    3 N3       -1.1159     1.9943     0.0293 N.am   1 <0>      -0.5200
    4 N4       -0.6888     3.3295     0.0300 N.2    1 <0>      -0.2700
    5 C5        0.6220     3.3324     0.0104 C.2    1 <0>       0.2800
    6 C6        1.6073     4.4184     0.0014 C.2    1 <0>       0.2500
    7 N7        1.1971     5.7522     0.0151 N.pl3  1 <0>      -0.7200
    8 C8        2.1943     6.8254     0.0059 C.3    1 <0>       0.1200
    9 C9        1.4849     8.1809     0.0243 C.3    1 <0>      -0.1300
   10 C10       2.5264     9.3017     0.0146 C.3    1 <0>      -0.0800
   11 C11       1.8276    10.6368     0.0327 C.ar   1 <0>      -0.0400
   12 C12       1.4753    11.2695    -1.1496 C.ar   1 <0>      -0.1700
   13 C13       0.8356    12.4933    -1.0938 C.ar   1 <0>       0.1000
   14 N14       0.5608    13.0585     0.0655 N.ar   1 <0>      -0.4900
   15 C15       0.8811    12.4859     1.2094 C.ar   1 <0>       0.1000
   16 C16       1.5168    11.2589     1.2322 C.ar   1 <0>      -0.1700
   17 C17       2.9320     4.0985    -0.0201 C.2    1 <0>      -0.1900
   18 C18       3.3242     2.7448    -0.0332 C.2    1 <0>      -0.0300
   19 Cl19      5.0141     2.3484    -0.0601 Cl     1 <0>      -0.0300
   20 C20       2.4158     1.7554    -0.0248 C.2    1 <0>       0.0700
   21 N21       1.0645     2.0232     0.0028 N.am   1 <0>      -0.4600
   22 H22      -2.0357     1.6866     0.0409 H      1 <0>       0.4700
   23 H23       0.2517     5.9687     0.0308 H      1 <0>       0.4100
   24 H24       2.8315     6.7368     0.8857 H      1 <0>       0.0700
   25 H25       2.8044     6.7467    -0.8940 H      1 <0>       0.0700
   26 H26       0.8477     8.2694    -0.8556 H      1 <0>       0.0800
   27 H27       0.8749     8.2595     0.9241 H      1 <0>       0.0800
   28 H28       3.1636     9.2131     0.8945 H      1 <0>       0.0800
   29 H29       3.1364     9.2230    -0.8853 H      1 <0>       0.0800
   30 H30       1.6982    10.8120    -2.1022 H      1 <0>       0.1400
   31 H31       0.5578    12.9927    -2.0102 H      1 <0>       0.1600
   32 H32       0.6401    12.9795     2.1393 H      1 <0>       0.1600
   33 H33       1.7762    10.7948     2.1722 H      1 <0>       0.1400
   34 H34       3.6782     4.8792    -0.0275 H      1 <0>       0.1500
   35 H35       2.7515     0.7289    -0.0357 H      1 <0>       0.1800
@<TRIPOS>BOND
   1    1    2 2
   2    2   21 am
   3    2    3 am
   4    3    4 1
   5    3   22 1
   6    4    5 2
   7    5   21 1
   8    5    6 1
   9    6    7 1
  10    6   17 2
  11    7    8 1
  12    7   23 1
  13    8    9 1
  14    8   24 1
  15    8   25 1
  16    9   10 1
  17    9   26 1
  18    9   27 1
  19   10   11 1
  20   10   28 1
  21   10   29 1
  22   11   16 ar
  23   11   12 ar
  24   12   13 ar
  25   12   30 1
  26   13   14 ar
  27   13   31 1
  28   14   15 ar
  29   15   16 ar
  30   15   32 1
  31   16   33 1
  32   17   18 1
  33   17   34 1
  34   18   19 1
  35   18   20 2
  36   20   21 1
  37   20   35 1
