@<TRIPOS>MOLECULE
ZINC000045256182
73    76    1     0     0
SMALL
USER_CHARGES
@<TRIPOS>ATOM
1      C1     12.9113    3.9414    2.4509 C.ar     1 ZINC000045256182   -0.1300
2      C2     12.7119    2.9446    1.5083 C.ar     1 ZINC000045256182   -0.0700
3      C3     11.4355    2.4236    1.3586 C.ar     1 ZINC000045256182   -0.1400
4      C4     10.4121    2.9118    2.1484 C.ar     1 ZINC000045256182    0.0400
5      C5      9.0211    2.3526    1.9947 C.3      1 ZINC000045256182    0.0600
6      N6      8.8091    1.2883    2.9848 N.4      1 ZINC000045256182   -0.5100
7      H7      9.4850    0.5535    2.8387 H        1 ZINC000045256182    0.4200
8      H8      8.9188    1.6664    3.9138 H        1 ZINC000045256182    0.4300
9      C9      7.4532    0.7432    2.8349 C.3      1 ZINC000045256182    0.0400
10     C10     7.2357   -0.3487    3.8506 C.ar     1 ZINC000045256182   -0.1400
11     C11     7.5526   -1.6572    3.5374 C.ar     1 ZINC000045256182   -0.0800
12     C12     7.3530   -2.6587    4.4690 C.ar     1 ZINC000045256182   -0.1200
13     C13     6.8370   -2.3516    5.7141 C.ar     1 ZINC000045256182   -0.0900
14     C14     6.6190   -3.4436    6.7296 C.3      1 ZINC000045256182    0.0000
15     N15     5.6652   -2.9825    7.7473 N.3      1 ZINC000045256182   -0.5200
16     C16     4.3909   -3.7054    7.6405 C.3      1 ZINC000045256182    0.0200
17     C17     4.1506   -4.1032    6.1828 C.3      1 ZINC000045256182   -0.0400
18     N18     4.4741   -5.5249    6.0032 N.4      1 ZINC000045256182   -0.5200
19     H19     4.8684   -5.8906    6.8569 H        1 ZINC000045256182    0.4200
20     H20     3.6338   -6.0349    5.7753 H        1 ZINC000045256182    0.4500
21     C21     5.4469   -5.6715    4.9123 C.3      1 ZINC000045256182   -0.0400
22     C22     5.6566   -7.1571    4.6115 C.3      1 ZINC000045256182   -0.1100
23     C23     6.9318   -7.6252    5.2643 C.ar     1 ZINC000045256182   -0.0900
24     C24     7.5219   -6.8594    6.2523 C.ar     1 ZINC000045256182   -0.1700
25     C25     8.6915   -7.2873    6.8524 C.ar     1 ZINC000045256182   -0.0900
26     C26     9.2712   -8.4806    6.4641 C.ar     1 ZINC000045256182   -0.1000
27     C27     8.6812   -9.2461    5.4756 C.ar     1 ZINC000045256182   -0.0800
28     C28     7.5113   -8.8184    4.8758 C.ar     1 ZINC000045256182   -0.0900
29     C29     9.3333   -6.4510    7.9294 C.3      1 ZINC000045256182   -0.1100
30     C30     8.8303   -5.0099    7.8215 C.3      1 ZINC000045256182   -0.0500
31     N31     8.1500   -4.6333    9.0677 N.4      1 ZINC000045256182   -0.5200
32     H32     7.3288   -5.2068    9.1891 H        1 ZINC000045256182    0.4200
33     H33     8.7753   -4.7719    9.8473 H        1 ZINC000045256182    0.4500
34     C34     7.7550   -3.2200    9.0020 C.3      1 ZINC000045256182   -0.0500
35     C35     6.2319   -3.1109    9.0965 C.3      1 ZINC000045256182    0.0200
36     C36     6.5214   -1.0429    6.0279 C.ar     1 ZINC000045256182   -0.0800
37     C37     6.7245   -0.0408    5.0976 C.ar     1 ZINC000045256182   -0.0800
38     N38    10.6386    3.8611    3.0355 N.ar     1 ZINC000045256182   -0.4700
39     C39    11.8390    4.3797    3.2049 C.ar     1 ZINC000045256182    0.1100
40     H40    13.8931    4.3669    2.5973 H        1 ZINC000045256182    0.1500
41     H41    13.5310    2.5827    0.9046 H        1 ZINC000045256182    0.1500
42     H42    11.2437    1.6464    0.6337 H        1 ZINC000045256182    0.1400
43     H43     8.2909    3.1463    2.1525 H        1 ZINC000045256182    0.1500
44     H44     8.9026    1.9441    0.9911 H        1 ZINC000045256182    0.1500
45     H45     6.7230    1.5369    2.9927 H        1 ZINC000045256182    0.1500
46     H46     7.3347    0.3347    1.8314 H        1 ZINC000045256182    0.1500
47     H47     7.9557   -1.8971    2.5646 H        1 ZINC000045256182    0.1400
48     H48     7.6000   -3.6812    4.2240 H        1 ZINC000045256182    0.1300
49     H49     6.2205   -4.3279    6.2324 H        1 ZINC000045256182    0.0700
50     H50     7.5675   -3.6911    7.2063 H        1 ZINC000045256182    0.1100
51     H51     4.4284   -4.6014    8.2601 H        1 ZINC000045256182    0.0700
52     H52     3.5789   -3.0625    7.9802 H        1 ZINC000045256182    0.1400
53     H53     3.1046   -3.9335    5.9276 H        1 ZINC000045256182    0.1600
54     H54     4.7854   -3.5012    5.5326 H        1 ZINC000045256182    0.1500
55     H55     5.0712   -5.1698    4.0206 H        1 ZINC000045256182    0.1500
56     H56     6.3954   -5.2235    5.2088 H        1 ZINC000045256182    0.1400
57     H57     4.8160   -7.7296    5.0036 H        1 ZINC000045256182    0.1100
58     H58     5.7251   -7.3036    3.5335 H        1 ZINC000045256182    0.1300
59     H59     7.0691   -5.9271    6.5557 H        1 ZINC000045256182    0.0900
60     H60    10.1851   -8.8146    6.9327 H        1 ZINC000045256182    0.1400
61     H61     9.1341  -10.1784    5.1722 H        1 ZINC000045256182    0.1500
62     H62     7.0502   -9.4167    4.1039 H        1 ZINC000045256182    0.1400
63     H63     9.0720   -6.8549    8.9075 H        1 ZINC000045256182    0.1100
64     H64    10.4162   -6.4683    7.8062 H        1 ZINC000045256182    0.1300
65     H65     9.6751   -4.3421    7.6527 H        1 ZINC000045256182    0.1500
66     H66     8.1322   -4.9303    6.9882 H        1 ZINC000045256182    0.1400
67     H67     8.2103   -2.6766    9.8300 H        1 ZINC000045256182    0.1600
68     H68     8.0920   -2.7921    8.0578 H        1 ZINC000045256182    0.1600
69     H69     5.9664   -2.2341    9.6871 H        1 ZINC000045256182    0.1400
70     H70     5.8326   -4.0054    9.5746 H        1 ZINC000045256182    0.0800
71     H71     6.1186   -0.8029    7.0008 H        1 ZINC000045256182    0.1500
72     H72     6.4779    0.9817    5.3427 H        1 ZINC000045256182    0.1400
73     H73    11.9860    5.1559    3.9413 H        1 ZINC000045256182    0.1700
@<TRIPOS>BOND
1     1     39    ar
2     1     2     ar
3     1     40    1
4     2     3     ar
5     2     41    1
6     3     4     ar
7     3     42    1
8     4     5     1
9     4     38    ar
10    5     6     1
11    5     43    1
12    5     44    1
13    6     7     1
14    6     8     1
15    6     9     1
16    9     10    1
17    9     45    1
18    9     46    1
19    10    37    ar
20    10    11    ar
21    11    12    ar
22    11    47    1
23    12    13    ar
24    12    48    1
25    13    14    1
26    13    36    ar
27    14    15    1
28    14    49    1
29    14    50    1
30    15    35    1
31    15    16    1
32    16    17    1
33    16    51    1
34    16    52    1
35    17    18    1
36    17    53    1
37    17    54    1
38    18    19    1
39    18    20    1
40    18    21    1
41    21    22    1
42    21    55    1
43    21    56    1
44    22    23    1
45    22    57    1
46    22    58    1
47    23    28    ar
48    23    24    ar
49    24    25    ar
50    24    59    1
51    25    26    ar
52    25    29    1
53    26    27    ar
54    26    60    1
55    27    28    ar
56    27    61    1
57    28    62    1
58    29    30    1
59    29    63    1
60    29    64    1
61    30    31    1
62    30    65    1
63    30    66    1
64    31    32    1
65    31    33    1
66    31    34    1
67    34    35    1
68    34    67    1
69    34    68    1
70    35    69    1
71    35    70    1
72    36    37    ar
73    36    71    1
74    37    72    1
75    38    39    ar
76    39    73    1
@<TRIPOS>SUBSTRUCTURE
1   ZINC000045256182 1     RESIDUE    1   A     ZIN   1
