@<TRIPOS>MOLECULE
ZINC000299860040
67    71    1     0     0
SMALL
USER_CHARGES
@<TRIPOS>ATOM
1      O1     -0.4190    0.9494    0.7074 O.2      1 ZINC000299860040   -0.6000
2      C2     -0.6562    2.1387    0.6967 C.2      1 ZINC000299860040    0.5400
3      N3      0.3475    3.0273    0.8365 N.pl3    1 ZINC000299860040   -1.1100
4      S4      1.9045    2.4952    1.0228 S.o2     1 ZINC000299860040    2.6400
5      O5      1.9541    1.8310    2.2780 O.2      1 ZINC000299860040   -1.0000
6      O6      2.2644    1.8707   -0.2018 O.2      1 ZINC000299860040   -1.0100
7      C7      2.9285    3.9212    1.1738 C.ar     1 ZINC000299860040   -0.5800
8      C8      3.4742    4.5029    0.0447 C.ar     1 ZINC000299860040   -0.0200
9      C9      4.2775    5.6216    0.1631 C.ar     1 ZINC000299860040   -0.0800
10     C10     4.5348    6.1589    1.4105 C.ar     1 ZINC000299860040   -0.0100
11     N11     5.3954    7.3565    1.5374 N.pl3    1 ZINC000299860040    0.0300
12     O12     5.8768    7.8686    0.5426 O.2      1 ZINC000299860040   -0.1600
13     O13     5.6221    7.8299    2.6365 O.2      1 ZINC000299860040   -0.1600
14     C14     3.9880    5.5780    2.5395 C.ar     1 ZINC000299860040   -0.0800
15     C15     3.1816    4.4615    2.4207 C.ar     1 ZINC000299860040   -0.0200
16     C16    -2.0724    2.6231    0.5210 C.3      1 ZINC000299860040    0.1400
17     H17    -2.1364    3.2413   -0.3744 H        1 ZINC000299860040    0.1300
18     C18    -2.4841    3.4488    1.7414 C.3      1 ZINC000299860040   -0.1000
19     C19    -3.8535    4.0349    1.5126 C.ar     1 ZINC000299860040   -0.0600
20     C20    -3.9835    5.2735    0.9126 C.ar     1 ZINC000299860040   -0.1000
21     C21    -5.2393    5.8113    0.7022 C.ar     1 ZINC000299860040   -0.0900
22     C22    -6.3660    5.1099    1.0920 C.ar     1 ZINC000299860040   -0.1000
23     Br23   -8.0844    5.8448    0.8038 Br       1 ZINC000299860040   -0.0600
24     C24    -6.2354    3.8706    1.6923 C.ar     1 ZINC000299860040   -0.0900
25     C25    -4.9794    3.3313    1.8976 C.ar     1 ZINC000299860040   -0.1200
26     N26    -2.9687    1.4723    0.3850 N.am     1 ZINC000299860040   -0.4900
27     C27    -3.6909    1.3166   -0.7120 C.2      1 ZINC000299860040    0.5500
28     O28    -3.6483    2.1019   -1.6407 O.2      1 ZINC000299860040   -0.4600
29     C29    -4.5479    0.1237   -0.7247 C.2      1 ZINC000299860040   -0.2300
30     C30    -5.3888   -0.2901   -1.7064 C.2      1 ZINC000299860040    0.0500
31     C31    -6.2852   -1.4295   -1.4734 C.ar     1 ZINC000299860040   -0.0700
32     C32    -6.6161   -1.8058   -0.1653 C.ar     1 ZINC000299860040   -0.1000
33     C33    -7.4502   -2.8661    0.0487 C.ar     1 ZINC000299860040   -0.0900
34     C34    -7.9724   -3.5747   -1.0346 C.ar     1 ZINC000299860040   -0.0500
35     C35    -8.8769   -4.7252   -0.7994 C.ar     1 ZINC000299860040    0.0100
36     C36    -9.2118   -5.0975    0.5019 C.ar     1 ZINC000299860040   -0.1100
37     C37   -10.0543   -6.1694    0.7148 C.ar     1 ZINC000299860040   -0.0500
38     C38   -10.5660   -6.8745   -0.3599 C.ar     1 ZINC000299860040   -0.0500
39     N39   -11.4693   -8.0235   -0.1249 N.pl3    1 ZINC000299860040    0.0300
40     O40   -11.7606   -8.3464    1.0128 O.2      1 ZINC000299860040   -0.1600
41     O41   -11.9212   -8.6459   -1.0693 O.2      1 ZINC000299860040   -0.1600
42     C42   -10.2373   -6.5098   -1.6532 C.ar     1 ZINC000299860040   -0.0500
43     C43    -9.4007   -5.4358   -1.8786 C.ar     1 ZINC000299860040   -0.1100
44     C44    -7.6446   -3.2015   -2.3391 C.ar     1 ZINC000299860040   -0.1000
45     C45    -6.8156   -2.1384   -2.5588 C.ar     1 ZINC000299860040   -0.0800
46     S46    -4.2294   -0.6525    0.8394 S.3      1 ZINC000299860040    0.0800
47     C47    -3.0584    0.5685    1.3674 C.2      1 ZINC000299860040    0.2500
48     S48    -2.2101    0.5915    2.8542 S.2      1 ZINC000299860040   -0.2900
49     H49     3.2731    4.0832   -0.9299 H        1 ZINC000299860040    0.1600
50     H50     4.7044    6.0757   -0.7189 H        1 ZINC000299860040    0.1600
51     H51     4.1888    5.9979    3.5140 H        1 ZINC000299860040    0.1600
52     H52     2.7544    4.0077    3.3027 H        1 ZINC000299860040    0.1600
53     H53    -2.5057    2.8082    2.6231 H        1 ZINC000299860040    0.1100
54     H54    -1.7653    4.2538    1.8948 H        1 ZINC000299860040    0.1200
55     H55    -3.1038    5.8212    0.6086 H        1 ZINC000299860040    0.1400
56     H56    -5.3408    6.7791    0.2337 H        1 ZINC000299860040    0.1300
57     H57    -7.1148    3.3226    1.9968 H        1 ZINC000299860040    0.1300
58     H58    -4.8773    2.3637    2.3664 H        1 ZINC000299860040    0.1200
59     H59    -5.3986    0.2186   -2.6590 H        1 ZINC000299860040    0.1600
60     H60    -6.2118   -1.2583    0.6732 H        1 ZINC000299860040    0.1400
61     H61    -7.7057   -3.1566    1.0570 H        1 ZINC000299860040    0.1400
62     H62    -8.8123   -4.5482    1.3417 H        1 ZINC000299860040    0.1500
63     H63   -10.3144   -6.4587    1.7223 H        1 ZINC000299860040    0.1600
64     H64   -10.6398   -7.0640   -2.4883 H        1 ZINC000299860040    0.1600
65     H65    -9.1451   -5.1517   -2.8888 H        1 ZINC000299860040    0.1500
66     H66    -8.0500   -3.7515   -3.1756 H        1 ZINC000299860040    0.1400
67     H67    -6.5623   -1.8501   -3.5684 H        1 ZINC000299860040    0.1400
@<TRIPOS>BOND
1     1     2     2
2     2     3     1
3     2     16    1
4     3     4     1
5     4     5     2
6     4     6     2
7     4     7     1
8     7     15    ar
9     7     8     ar
10    8     9     ar
11    8     49    1
12    9     10    ar
13    9     50    1
14    10    11    1
15    10    14    ar
16    11    12    2
17    11    13    2
18    14    15    ar
19    14    51    1
20    15    52    1
21    16    17    1
22    16    18    1
23    16    26    1
24    18    19    1
25    18    53    1
26    18    54    1
27    19    25    ar
28    19    20    ar
29    20    21    ar
30    20    55    1
31    21    22    ar
32    21    56    1
33    22    23    1
34    22    24    ar
35    24    25    ar
36    24    57    1
37    25    58    1
38    26    47    am
39    26    27    am
40    27    28    2
41    27    29    1
42    29    30    2
43    29    46    1
44    30    31    1
45    30    59    1
46    31    45    ar
47    31    32    ar
48    32    33    ar
49    32    60    1
50    33    34    ar
51    33    61    1
52    34    35    1
53    34    44    ar
54    35    43    ar
55    35    36    ar
56    36    37    ar
57    36    62    1
58    37    38    ar
59    37    63    1
60    38    39    1
61    38    42    ar
62    39    40    2
63    39    41    2
64    42    43    ar
65    42    64    1
66    43    65    1
67    44    45    ar
68    44    66    1
69    45    67    1
70    46    47    1
71    47    48    2
@<TRIPOS>SUBSTRUCTURE
1   ZINC000299860040 1     RESIDUE    1   A     ZIN   1
