@<TRIPOS>MOLECULE
ZINC000164333972
92    97    1     0     0
SMALL
USER_CHARGES
@<TRIPOS>ATOM
1      C1      2.6281    5.7220   -2.2242 C.3      1 ZINC000164333972    0.0300
2      O2      2.1338    4.4152   -1.9240 O.3      1 ZINC000164333972   -0.3900
3      C3      0.7085    4.3323   -1.8650 C.3      1 ZINC000164333972    0.0400
4      C4      0.2942    2.8960   -1.5388 C.3      1 ZINC000164333972    0.1100
5      N5      0.7588    2.5473   -0.1939 N.am     1 ZINC000164333972   -0.6100
6      C6     -0.1004    2.7984    0.9659 C.3      1 ZINC000164333972    0.1200
7      C7     -0.9754    1.5709    1.2276 C.3      1 ZINC000164333972    0.0400
8      O8     -0.1483    0.4673    1.6018 O.3      1 ZINC000164333972   -0.3700
9      C9     -0.8709   -0.7360    1.8700 C.3      1 ZINC000164333972    0.0300
10     C10     1.9765    1.9955   -0.0235 C.2      1 ZINC000164333972    0.5300
11     O11     2.3611    1.7068    1.0899 O.2      1 ZINC000164333972   -0.5200
12     C12     2.8603    1.7372   -1.2165 C.3      1 ZINC000164333972   -0.1500
13     C13     4.1760    1.1106   -0.7504 C.3      1 ZINC000164333972   -0.0900
14     C14     5.0733    0.8483   -1.9617 C.3      1 ZINC000164333972   -0.0100
15     C15     6.3391    0.2454   -1.5132 C.1      1 ZINC000164333972   -0.1100
16     C16     7.3486   -0.2354   -1.1556 C.1      1 ZINC000164333972   -0.1600
17     C17     8.5800   -0.8219   -0.7194 C.ar     1 ZINC000164333972    0.1100
18     C18     8.8015   -1.0712    0.6326 C.ar     1 ZINC000164333972   -0.1200
19     C19     9.9927   -1.6381    1.0547 C.ar     1 ZINC000164333972   -0.0700
20     C20    10.9813   -1.9669    0.1523 C.ar     1 ZINC000164333972   -0.1000
21     C21    10.7897   -1.7298   -1.2108 C.ar     1 ZINC000164333972    0.1600
22     C22     9.5771   -1.1580   -1.6514 C.ar     1 ZINC000164333972   -0.1800
23     C23     9.4073   -0.9212   -3.0895 C.2      1 ZINC000164333972    0.5400
24     O24     8.3851   -0.4305   -3.5332 O.2      1 ZINC000164333972   -0.4600
25     N25    10.4310   -1.2689   -3.9038 N.am     1 ZINC000164333972   -0.5300
26     C26    10.3147   -1.0544   -5.3484 C.3      1 ZINC000164333972    0.1200
27     C27     9.9177   -2.3450   -6.0175 C.ar     1 ZINC000164333972   -0.1100
28     C28    10.8802   -3.1425   -6.6068 C.ar     1 ZINC000164333972   -0.1000
29     C29    10.5161   -4.3266   -7.2208 C.ar     1 ZINC000164333972   -0.1100
30     C30     9.1893   -4.7131   -7.2461 C.ar     1 ZINC000164333972   -0.0900
31     C31     8.2256   -3.9162   -6.6569 C.ar     1 ZINC000164333972   -0.1100
32     C32     8.5900   -2.7344   -6.0371 C.ar     1 ZINC000164333972   -0.0300
33     Cl33    7.3804   -1.7330   -5.2971 Cl       1 ZINC000164333972   -0.0200
34     C34    11.5655   -1.8146   -3.3934 C.2      1 ZINC000164333972    0.3800
35     C35    12.6739   -2.1819   -4.3460 C.3      1 ZINC000164333972    0.1800
36     N36    13.8464   -2.6207   -3.5851 N.pl3    1 ZINC000164333972   -0.3600
37     N37    14.8727   -1.7863   -3.1296 N.2      1 ZINC000164333972   -0.2200
38     C38    15.7688   -2.4936   -2.4829 C.2      1 ZINC000164333972    0.1700
39     C39    17.0052   -1.9763   -1.8490 C.ar     1 ZINC000164333972   -0.0100
40     C40    18.2071   -2.6675   -1.9942 C.ar     1 ZINC000164333972   -0.1200
41     C41    19.3569   -2.1837   -1.4029 C.ar     1 ZINC000164333972   -0.1000
42     C42    19.3207   -1.0147   -0.6664 C.ar     1 ZINC000164333972   -0.1300
43     C43    18.1277   -0.3203   -0.5164 C.ar     1 ZINC000164333972    0.1100
44     O44    18.0968    0.8284    0.2092 O.3      1 ZINC000164333972   -0.5000
45     C45    16.9705   -0.7948   -1.1111 C.ar     1 ZINC000164333972   -0.1100
46     C46    15.3226   -3.8864   -2.5022 C.ar     1 ZINC000164333972   -0.3200
47     C47    15.8249   -5.0973   -1.9983 C.ar     1 ZINC000164333972    0.5200
48     N48    17.0141   -5.1331   -1.2961 N.pl3    1 ZINC000164333972   -0.8300
49     N49    15.1270   -6.2083   -2.2137 N.ar     1 ZINC000164333972   -0.6000
50     C50    13.9891   -6.1800   -2.8841 C.ar     1 ZINC000164333972    0.3900
51     N51    13.4808   -5.0707   -3.3744 N.ar     1 ZINC000164333972   -0.5700
52     C52    14.1037   -3.9046   -3.2059 C.ar     1 ZINC000164333972    0.4000
53     N53    11.7412   -2.0405   -2.1269 N.2      1 ZINC000164333972   -0.5000
54     H54     3.7176    5.7011   -2.2508 H        1 ZINC000164333972    0.0900
55     H55     2.2469    6.0406   -3.1944 H        1 ZINC000164333972    0.0400
56     H56     2.2968    6.4210   -1.4562 H        1 ZINC000164333972    0.0400
57     H57     0.3374    5.0025   -1.0896 H        1 ZINC000164333972    0.0500
58     H58     0.2875    4.6221   -2.8277 H        1 ZINC000164333972    0.0600
59     H59    -0.7917    2.8126   -1.5811 H        1 ZINC000164333972    0.0900
60     H60     0.7395    2.2157   -2.2647 H        1 ZINC000164333972    0.0900
61     H61     0.5189    2.9963    1.8408 H        1 ZINC000164333972    0.0900
62     H62    -0.7355    3.6617    0.7675 H        1 ZINC000164333972    0.0900
63     H63    -1.6761    1.7894    2.0335 H        1 ZINC000164333972    0.0600
64     H64    -1.5290    1.3198    0.3229 H        1 ZINC000164333972    0.0500
65     H65    -1.4224   -1.0350    0.9785 H        1 ZINC000164333972    0.0400
66     H66    -0.1722   -1.5254    2.1468 H        1 ZINC000164333972    0.0800
67     H67    -1.5695   -0.5654    2.6891 H        1 ZINC000164333972    0.0400
68     H68     2.3559    1.0558   -1.9016 H        1 ZINC000164333972    0.0800
69     H69     3.0666    2.6782   -1.7264 H        1 ZINC000164333972    0.1200
70     H70     4.6804    1.7920   -0.0654 H        1 ZINC000164333972    0.0800
71     H71     3.9697    0.1695   -0.2406 H        1 ZINC000164333972    0.0700
72     H72     4.5689    0.1669   -2.6467 H        1 ZINC000164333972    0.0900
73     H73     5.2796    1.7894   -2.4715 H        1 ZINC000164333972    0.0900
74     H74     8.0400   -0.8208    1.3564 H        1 ZINC000164333972    0.1400
75     H75    10.1493   -1.8249    2.1068 H        1 ZINC000164333972    0.1400
76     H76    11.9043   -2.4076    0.4993 H        1 ZINC000164333972    0.1400
77     H77     9.5566   -0.2959   -5.5432 H        1 ZINC000164333972    0.1200
78     H78    11.2736   -0.7198   -5.7443 H        1 ZINC000164333972    0.1000
79     H79    11.9170   -2.8407   -6.5880 H        1 ZINC000164333972    0.1300
80     H80    11.2686   -4.9496   -7.6812 H        1 ZINC000164333972    0.1300
81     H81     8.9054   -5.6378   -7.7264 H        1 ZINC000164333972    0.1300
82     H82     7.1889   -4.2183   -6.6767 H        1 ZINC000164333972    0.1300
83     H83    12.3404   -2.9897   -4.9974 H        1 ZINC000164333972    0.1400
84     H84    12.9368   -1.3134   -4.9498 H        1 ZINC000164333972    0.1300
85     H85    18.2386   -3.5814   -2.5689 H        1 ZINC000164333972    0.1400
86     H86    20.2873   -2.7203   -1.5159 H        1 ZINC000164333972    0.1400
87     H87    20.2230   -0.6404   -0.2058 H        1 ZINC000164333972    0.1300
88     H88    18.2671    1.6262   -0.3101 H        1 ZINC000164333972    0.4000
89     H89    16.0420   -0.2556   -0.9956 H        1 ZINC000164333972    0.1400
90     H90    17.3949   -4.3129   -0.9450 H        1 ZINC000164333972    0.4100
91     H91    17.4682   -5.9784   -1.1541 H        1 ZINC000164333972    0.4100
92     H92    13.4545   -7.1060   -3.0362 H        1 ZINC000164333972    0.2000
@<TRIPOS>BOND
1     1     2     1
2     1     54    1
3     1     55    1
4     1     56    1
5     2     3     1
6     3     4     1
7     3     57    1
8     3     58    1
9     4     5     1
10    4     59    1
11    4     60    1
12    5     6     1
13    5     10    am
14    6     7     1
15    6     61    1
16    6     62    1
17    7     8     1
18    7     63    1
19    7     64    1
20    8     9     1
21    9     65    1
22    9     66    1
23    9     67    1
24    10    11    2
25    10    12    1
26    12    13    1
27    12    68    1
28    12    69    1
29    13    14    1
30    13    70    1
31    13    71    1
32    14    15    1
33    14    72    1
34    14    73    1
35    15    16    3
36    16    17    1
37    17    22    ar
38    17    18    ar
39    18    19    ar
40    18    74    1
41    19    20    ar
42    19    75    1
43    20    21    ar
44    20    76    1
45    21    53    1
46    21    22    ar
47    22    23    1
48    23    24    2
49    23    25    am
50    25    26    1
51    25    34    1
52    26    27    1
53    26    77    1
54    26    78    1
55    27    32    ar
56    27    28    ar
57    28    29    ar
58    28    79    1
59    29    30    ar
60    29    80    1
61    30    31    ar
62    30    81    1
63    31    32    ar
64    31    82    1
65    32    33    1
66    34    35    1
67    34    53    2
68    35    36    1
69    35    83    1
70    35    84    1
71    36    52    1
72    36    37    1
73    37    38    2
74    38    39    1
75    38    46    1
76    39    45    ar
77    39    40    ar
78    40    41    ar
79    40    85    1
80    41    42    ar
81    41    86    1
82    42    43    ar
83    42    87    1
84    43    44    1
85    43    45    ar
86    44    88    1
87    45    89    1
88    46    52    ar
89    46    47    ar
90    47    48    1
91    47    49    ar
92    48    90    1
93    48    91    1
94    49    50    ar
95    50    51    ar
96    50    92    1
97    51    52    ar
@<TRIPOS>SUBSTRUCTURE
1   ZINC000164333972 1     RESIDUE    1   A     ZIN   1
