@<TRIPOS>MOLECULE
ZINC000003871804
31    32    1     0     0
SMALL
USER_CHARGES
@<TRIPOS>ATOM
1      O1      0.1226    0.0556    0.9449 O.2      1 ZINC000003871804   -0.4300
2      C2      0.0447    1.2297    0.6295 C.2      1 ZINC000003871804    0.4000
3      C3      1.2464    1.9609    0.2317 C.2      1 ZINC000003871804   -0.1900
4      C4      2.4196    1.3056    0.0880 C.2      1 ZINC000003871804   -0.0800
5      C5      2.4443   -0.1634    0.0801 C.ar     1 ZINC000003871804   -0.0400
6      C6      1.5250   -0.8767   -0.6977 C.ar     1 ZINC000003871804   -0.0400
7      C7      1.5508   -2.2542   -0.7036 C.ar     1 ZINC000003871804   -0.1300
8      C8      2.4870   -2.9379    0.0605 C.ar     1 ZINC000003871804    0.0800
9      O9      2.5075   -4.2959    0.0505 O.3      1 ZINC000003871804   -0.4900
10     C10     3.4070   -2.2342    0.8379 C.ar     1 ZINC000003871804    0.0700
11     O11     4.3224   -2.9083    1.5843 O.3      1 ZINC000003871804   -0.4900
12     C12     3.3917   -0.8540    0.8462 C.ar     1 ZINC000003871804   -0.1200
13     C13    -1.2624    1.9115    0.6432 C.ar     1 ZINC000003871804   -0.3300
14     C14    -1.3559    3.2574    0.2762 C.ar     1 ZINC000003871804   -0.0100
15     C15    -2.5776    3.8901    0.2898 C.ar     1 ZINC000003871804   -0.2900
16     C16    -3.7225    3.1952    0.6678 C.ar     1 ZINC000003871804    0.1600
17     O17    -4.9237    3.8269    0.6785 O.3      1 ZINC000003871804   -0.5100
18     C18    -3.6412    1.8593    1.0334 C.ar     1 ZINC000003871804   -0.2800
19     C19    -2.4190    1.2105    1.0192 C.ar     1 ZINC000003871804    0.3100
20     O20    -2.3375   -0.0960    1.3759 O.3      1 ZINC000003871804   -0.6700
21     H21     1.1966    3.0248    0.0526 H        1 ZINC000003871804    0.1300
22     H22     3.3389    1.8618   -0.0210 H        1 ZINC000003871804    0.1300
23     H23     0.7954   -0.3476   -1.2927 H        1 ZINC000003871804    0.1200
24     H24     0.8407   -2.8036   -1.3038 H        1 ZINC000003871804    0.1300
25     H25     3.0777   -4.6756   -0.6319 H        1 ZINC000003871804    0.3800
26     H26     5.1513   -3.0898    1.1205 H        1 ZINC000003871804    0.3800
27     H27     4.1037   -0.3082    1.4474 H        1 ZINC000003871804    0.1300
28     H28    -0.4696    3.8002   -0.0175 H        1 ZINC000003871804    0.1000
29     H29    -2.6482    4.9299    0.0064 H        1 ZINC000003871804    0.1000
30     H30    -5.4046    3.7716   -0.1587 H        1 ZINC000003871804    0.3800
31     H31    -4.5327    1.3245    1.3260 H        1 ZINC000003871804    0.1000
@<TRIPOS>BOND
1     1     2     2
2     2     3     1
3     2     13    1
4     3     4     2
5     3     21    1
6     4     5     1
7     4     22    1
8     5     12    ar
9     5     6     ar
10    6     7     ar
11    6     23    1
12    7     8     ar
13    7     24    1
14    8     9     1
15    8     10    ar
16    9     25    1
17    10    11    1
18    10    12    ar
19    11    26    1
20    12    27    1
21    13    19    ar
22    13    14    ar
23    14    15    ar
24    14    28    1
25    15    16    ar
26    15    29    1
27    16    17    1
28    16    18    ar
29    17    30    1
30    18    19    ar
31    18    31    1
32    19    20    1
@<TRIPOS>SUBSTRUCTURE
1   ZINC000003871804 1     RESIDUE    1   A     ZIN   1
