@<TRIPOS>MOLECULE
ZINC000045498142
  24   26    0    0    0
SMALL
USER_CHARGES
NO_NAME
@<TRIPOS>ATOM
    1 C1       -0.0184     1.5028     0.0103 C.3    1 <0>      -0.1200
    2 C2        0.0021    -0.0041     0.0020 C.2    1 <0>      -0.0100
    3 C3        0.0059    -0.6788    -1.1659 C.2    1 <0>      -0.1100
    4 C4        0.0263    -2.1437    -1.1618 C.2    1 <0>       0.3100
    5 N5        0.0341    -3.0122    -2.1449 N.2    1 <0>      -0.2700
    6 N6        0.0549    -4.2970    -1.5867 N.am   1 <0>      -0.5300
    7 C7        0.0591    -4.1584    -0.2459 C.2    1 <0>       0.6500
    8 O8        0.0753    -5.0640     0.5691 O.2    1 <0>      -0.5400
    9 N9        0.0417    -2.8383     0.0331 N.am   1 <0>      -0.4900
   10 C10       0.0383    -2.1553     1.2449 C.ar   1 <0>       0.1700
   11 C11       0.0539    -2.8581     2.4424 C.ar   1 <0>      -0.1400
   12 C12       0.0509    -2.1765     3.6427 C.ar   1 <0>      -0.0800
   13 C13       0.0320    -0.7908     3.6657 C.ar   1 <0>      -0.1300
   14 C14       0.0163    -0.0753     2.4884 C.ar   1 <0>      -0.0700
   15 C15       0.0242    -0.7521     1.2649 C.ar   1 <0>      -0.0900
   16 H16       1.0042     1.8801     0.0026 H      1 <0>       0.0900
   17 H17      -0.5455     1.8639    -0.8728 H      1 <0>       0.0800
   18 H18      -0.5286     1.8543     0.9071 H      1 <0>       0.0800
   19 H19      -0.0065    -0.1404    -2.1021 H      1 <0>       0.1600
   20 H20       0.0640    -5.1344    -2.0763 H      1 <0>       0.4600
   21 H21       0.0679    -3.9380     2.4347 H      1 <0>       0.1500
   22 H22       0.0630    -2.7274     4.5716 H      1 <0>       0.1400
   23 H23       0.0291    -0.2692     4.6114 H      1 <0>       0.1400
   24 H24       0.0015     1.0044     2.5105 H      1 <0>       0.1400
@<TRIPOS>BOND
   1    1    2 1
   2    1   16 1
   3    1   17 1
   4    1   18 1
   5    2   15 1
   6    2    3 2
   7    3    4 1
   8    3   19 1
   9    4    9 1
  10    4    5 2
  11    5    6 1
  12    6    7 am
  13    6   20 1
  14    7    8 2
  15    7    9 am
  16    9   10 1
  17   10   15 ar
  18   10   11 ar
  19   11   12 ar
  20   11   21 1
  21   12   13 ar
  22   12   22 1
  23   13   14 ar
  24   13   23 1
  25   14   15 ar
  26   14   24 1
