@<TRIPOS>MOLECULE
ZINC000003087731
33    34    1     0     0
SMALL
USER_CHARGES
@<TRIPOS>ATOM
1      C1      0.2179    1.5560    0.0547 C.2      1 ZINC000003087731   -0.1500
2      C2      0.1629    0.2547    0.1949 C.2      1 ZINC000003087731   -0.1900
3      C3      1.4246   -0.5656    0.1167 C.3      1 ZINC000003087731    0.1300
4      N4      1.5556   -1.3769    1.3295 N.pl3    1 ZINC000003087731   -0.6700
5      C5      2.6369   -2.2120    1.4845 C.2      1 ZINC000003087731    0.1900
6      C6      2.8507   -3.0192    2.5821 C.2      1 ZINC000003087731   -0.2400
7      C7      1.9538   -3.0742    3.6971 C.1      1 ZINC000003087731    0.2700
8      N8      1.2423   -3.1179    4.5816 N.1      1 ZINC000003087731   -0.4300
9      C9      4.0179   -3.7762    2.5084 C.2      1 ZINC000003087731    0.3800
10     N10     4.4234   -4.6531    3.5022 N.pl3    1 ZINC000003087731   -0.8200
11     C11     4.7264   -3.5651    1.3490 C.2      1 ZINC000003087731   -0.4500
12     C12     5.9391   -4.1978    1.0159 C.2      1 ZINC000003087731    0.4800
13     O13     6.3803   -5.0838    1.7281 O.2      1 ZINC000003087731   -0.4900
14     C14     6.6782   -3.7877   -0.1985 C.ar     1 ZINC000003087731   -0.1400
15     C15     6.5618   -2.4837   -0.6825 C.ar     1 ZINC000003087731   -0.0800
16     C16     7.2531   -2.1071   -1.8149 C.ar     1 ZINC000003087731   -0.1100
17     C17     8.0613   -3.0201   -2.4718 C.ar     1 ZINC000003087731   -0.0200
18     Cl18    8.9285   -2.5390   -3.8966 Cl       1 ZINC000003087731   -0.0600
19     C19     8.1807   -4.3154   -1.9961 C.ar     1 ZINC000003087731   -0.1200
20     C20     7.4990   -4.7016   -0.8611 C.ar     1 ZINC000003087731   -0.0500
21     S21     3.8896   -2.3942    0.3425 S.3      1 ZINC000003087731    0.2500
22     H22     1.1675    2.0410   -0.1170 H        1 ZINC000003087731    0.1000
23     H23    -0.6869    2.1435    0.1063 H        1 ZINC000003087731    0.1100
24     H24    -0.7867   -0.2302    0.3665 H        1 ZINC000003087731    0.1200
25     H25     1.3797   -1.2191   -0.7545 H        1 ZINC000003087731    0.0900
26     H26     2.2847    0.0982    0.0290 H        1 ZINC000003087731    0.0800
27     H27     0.8795   -1.3250    2.0231 H        1 ZINC000003087731    0.4100
28     H28     3.8844   -4.7636    4.3010 H        1 ZINC000003087731    0.4000
29     H29     5.2463   -5.1563    3.3988 H        1 ZINC000003087731    0.4200
30     H30     5.9313   -1.7712   -0.1715 H        1 ZINC000003087731    0.1400
31     H31     7.1638   -1.0984   -2.1903 H        1 ZINC000003087731    0.1400
32     H32     8.8121   -5.0233   -2.5126 H        1 ZINC000003087731    0.1400
33     H33     7.5931   -5.7118   -0.4908 H        1 ZINC000003087731    0.1400
@<TRIPOS>BOND
1     1     2     2
2     1     22    1
3     1     23    1
4     2     3     1
5     2     24    1
6     3     4     1
7     3     25    1
8     3     26    1
9     4     5     1
10    4     27    1
11    5     21    1
12    5     6     2
13    6     7     1
14    6     9     1
15    7     8     3
16    9     10    1
17    9     11    2
18    10    28    1
19    10    29    1
20    11    12    1
21    11    21    1
22    12    13    2
23    12    14    1
24    14    20    ar
25    14    15    ar
26    15    16    ar
27    15    30    1
28    16    17    ar
29    16    31    1
30    17    18    1
31    17    19    ar
32    19    20    ar
33    19    32    1
34    20    33    1
@<TRIPOS>SUBSTRUCTURE
1   ZINC000003087731 1     RESIDUE    1   A     ZIN   1
