@<TRIPOS>MOLECULE
ZINC000000105809
  20   20    0    0    0
SMALL
USER_CHARGES
NO_NAME
@<TRIPOS>ATOM
    1 C1       -0.0225     1.8097     0.0120 C.3    1 <0>      -0.1500
    2 S2        0.0021    -0.0041     0.0020 S.3    1 <0>      -0.0100
    3 C3       -1.7092    -0.4238     0.0161 C.2    1 <0>       0.1300
    4 N4       -2.6390     0.4927     0.0244 N.2    1 <0>      -0.4800
    5 S5       -4.1346    -0.3062     0.0358 S.3    1 <0>       0.2800
    6 C6       -3.4829    -1.8981     0.0292 C.2    1 <0>      -0.1800
    7 S7       -4.3779    -3.4159     0.0352 S.3    1 <0>       0.0100
    8 C8       -6.1076    -2.8696     0.0503 C.3    1 <0>      -0.1700
    9 C9       -2.1332    -1.7399     0.0131 C.2    1 <0>      -0.1400
   10 C10      -1.1764    -2.9042     0.0026 C.3    1 <0>       0.1400
   11 O11      -0.8900    -3.2732    -1.3479 O.3    1 <0>      -0.5600
   12 H12       1.0001     2.1870     0.0043 H      1 <0>       0.1100
   13 H13      -0.5497     2.1708    -0.8711 H      1 <0>       0.0900
   14 H14      -0.5327     2.1613     0.9088 H      1 <0>       0.0900
   15 H15      -6.3068    -2.2693    -0.8374 H      1 <0>       0.0900
   16 H16      -6.7635    -3.7402     0.0549 H      1 <0>       0.1200
   17 H17      -6.2918    -2.2712     0.9425 H      1 <0>       0.0900
   18 H18      -0.2521    -2.6194     0.5053 H      1 <0>       0.0700
   19 H19      -1.6271    -3.7496     0.5225 H      1 <0>       0.0600
   20 H20      -0.2789    -4.0180    -1.4310 H      1 <0>       0.3800
@<TRIPOS>BOND
   1    1    2 1
   2    1   12 1
   3    1   13 1
   4    1   14 1
   5    2    3 1
   6    3    9 1
   7    3    4 2
   8    4    5 1
   9    5    6 1
  10    6    7 1
  11    6    9 2
  12    7    8 1
  13    8   15 1
  14    8   16 1
  15    8   17 1
  16    9   10 1
  17   10   11 1
  18   10   18 1
  19   10   19 1
  20   11   20 1
