@<TRIPOS>MOLECULE
ZINC000006716034
53    56    1     0     0
SMALL
USER_CHARGES
@<TRIPOS>ATOM
1      C1     -0.8963    1.8226    1.0019 C.3      1 ZINC000006716034    0.0300
2      O2     -0.6872    0.4223    0.8083 O.3      1 ZINC000006716034   -0.3900
3      C3     -1.8934   -0.3336    0.6832 C.3      1 ZINC000006716034    0.0600
4      C4     -1.5507   -1.8110    0.4809 C.3      1 ZINC000006716034   -0.1300
5      C5     -2.8421   -2.6204    0.3470 C.3      1 ZINC000006716034    0.1200
6      N6     -2.5140   -4.0350    0.1533 N.am     1 ZINC000006716034   -1.1200
7      S7     -3.6842   -5.1905    0.3474 S.o2     1 ZINC000006716034    2.7000
8      O8     -3.0675   -6.4382    0.0606 O.2      1 ZINC000006716034   -0.9600
9      O9     -4.3270   -4.9070    1.5826 O.2      1 ZINC000006716034   -0.9600
10     C10    -4.8887   -4.9297   -0.9118 C.ar     1 ZINC000006716034   -0.7000
11     C11    -5.9613   -4.0890   -0.6770 C.ar     1 ZINC000006716034    0.0000
12     C12    -6.9072   -3.8823   -1.6618 C.ar     1 ZINC000006716034   -0.1400
13     C13    -6.7803   -4.5201   -2.8892 C.ar     1 ZINC000006716034    0.2300
14     N14    -7.7359   -4.3128   -3.8885 N.pl3    1 ZINC000006716034   -0.6400
15     C15    -8.3582   -3.0807   -4.0070 C.ar     1 ZINC000006716034    0.5700
16     N16    -7.9530   -2.0769   -3.2424 N.ar     1 ZINC000006716034   -0.5600
17     C17    -8.5208   -0.8820   -3.3243 C.ar     1 ZINC000006716034    0.2000
18     C18    -9.5507   -0.6827   -4.2215 C.ar     1 ZINC000006716034   -0.3000
19     C19    -9.9599   -1.7619   -5.0188 C.ar     1 ZINC000006716034    0.3100
20     C20   -11.0540   -1.6015   -5.9915 C.2      1 ZINC000006716034   -0.0700
21     C21   -11.6464   -2.5983   -6.7371 C.2      1 ZINC000006716034    0.1200
22     N22   -12.5904   -2.0486   -7.4921 N.2      1 ZINC000006716034   -0.4900
23     C23   -12.6356   -0.7392   -7.2683 C.2      1 ZINC000006716034    0.2500
24     C24   -13.4452    0.2798   -7.8055 C.2      1 ZINC000006716034   -0.0800
25     C25   -13.2702    1.5631   -7.3854 C.2      1 ZINC000006716034   -0.0900
26     C26   -12.2881    1.8519   -6.4256 C.2      1 ZINC000006716034   -0.1300
27     C27   -11.5197    0.8620   -5.9204 C.2      1 ZINC000006716034    0.0400
28     N28   -11.6899   -0.4261   -6.3298 N.pl3    1 ZINC000006716034   -0.3400
29     N29    -9.3380   -2.9353   -4.8847 N.ar     1 ZINC000006716034   -0.5500
30     C30    -5.7018   -5.3639   -3.1218 C.ar     1 ZINC000006716034   -0.1700
31     C31    -4.7564   -5.5618   -2.1346 C.ar     1 ZINC000006716034    0.0100
32     H32     0.0670    2.3254    1.0876 H        1 ZINC000006716034    0.0900
33     H33    -1.4439    2.2292    0.1516 H        1 ZINC000006716034    0.0400
34     H34    -1.4716    1.9815    1.9140 H        1 ZINC000006716034    0.0400
35     H35    -2.4893   -0.2196    1.5887 H        1 ZINC000006716034    0.0500
36     H36    -2.4617    0.0281   -0.1737 H        1 ZINC000006716034    0.0500
37     H37    -0.9548   -1.9251   -0.4246 H        1 ZINC000006716034    0.0800
38     H38    -0.9824   -2.1728    1.3378 H        1 ZINC000006716034    0.0800
39     H39    -3.4380   -2.5063    1.2525 H        1 ZINC000006716034    0.0800
40     H40    -3.4104   -2.2586   -0.5099 H        1 ZINC000006716034    0.0700
41     H41    -1.6112   -4.2947   -0.0887 H        1 ZINC000006716034    0.4200
42     H42    -6.0595   -3.5937    0.2777 H        1 ZINC000006716034    0.1400
43     H43    -7.7448   -3.2259   -1.4777 H        1 ZINC000006716034    0.1400
44     H44    -7.9632   -5.0316   -4.4989 H        1 ZINC000006716034    0.4300
45     H45    -8.1813   -0.0726   -2.6951 H        1 ZINC000006716034    0.1800
46     H46   -10.0302    0.2812   -4.3074 H        1 ZINC000006716034    0.1500
47     H47   -11.3869   -3.6464   -6.7120 H        1 ZINC000006716034    0.1900
48     H48   -14.1977    0.0457   -8.5440 H        1 ZINC000006716034    0.1600
49     H49   -13.8839    2.3548   -7.7891 H        1 ZINC000006716034    0.1500
50     H50   -12.1458    2.8685   -6.0900 H        1 ZINC000006716034    0.1600
51     H51   -10.7661    1.0935   -5.1823 H        1 ZINC000006716034    0.1700
52     H52    -5.6005   -5.8616   -4.0749 H        1 ZINC000006716034    0.1400
53     H53    -3.9174   -6.2175   -2.3149 H        1 ZINC000006716034    0.1500
@<TRIPOS>BOND
1     1     2     1
2     1     32    1
3     1     33    1
4     1     34    1
5     2     3     1
6     3     4     1
7     3     35    1
8     3     36    1
9     4     5     1
10    4     37    1
11    4     38    1
12    5     6     1
13    5     39    1
14    5     40    1
15    6     7     am
16    6     41    1
17    7     8     2
18    7     9     2
19    7     10    1
20    10    31    ar
21    10    11    ar
22    11    12    ar
23    11    42    1
24    12    13    ar
25    12    43    1
26    13    14    1
27    13    30    ar
28    14    15    1
29    14    44    1
30    15    29    ar
31    15    16    ar
32    16    17    ar
33    17    18    ar
34    17    45    1
35    18    19    ar
36    18    46    1
37    19    20    1
38    19    29    ar
39    20    28    1
40    20    21    2
41    21    22    1
42    21    47    1
43    22    23    2
44    23    28    1
45    23    24    1
46    24    25    2
47    24    48    1
48    25    26    1
49    25    49    1
50    26    27    2
51    26    50    1
52    27    28    1
53    27    51    1
54    30    31    ar
55    30    52    1
56    31    53    1
@<TRIPOS>SUBSTRUCTURE
1   ZINC000006716034 1     RESIDUE    1   A     ZIN   1
