@<TRIPOS>MOLECULE
ZINC000034894448
  57   60    0    0    0
SMALL
USER_CHARGES
NO_NAME
@<TRIPOS>ATOM
    1 C1        0.0661     1.4762    -0.0374 C.3    1 <0>      -0.1400
    2 C2       -0.0020    -0.0522    -0.0225 C.3    1 <0>      -0.0300
    3 C3        0.5950    -0.5941    -1.2956 C.2    1 <0>      -0.2600
    4 C4        1.9391    -0.8536    -1.5250 C.2    1 <0>       0.3400
    5 N5        3.0312    -0.7169    -0.7581 N.2    1 <0>      -0.5500
    6 C6        4.2277    -1.0413    -1.2171 C.2    1 <0>       0.4900
    7 N7        5.3417    -0.8920    -0.4076 N.pl3  1 <0>      -0.5900
    8 C8        6.6916    -1.1146    -0.9434 C.3    1 <0>       0.1200
    9 C9        7.4142    -2.1303    -0.0529 C.3    1 <0>      -0.1400
   10 C10       7.3861    -1.6422     1.3973 C.3    1 <0>      -0.1200
   11 C11       5.9353    -1.5300     1.8716 C.3    1 <0>      -0.1400
   12 C12       5.1963    -0.5020     1.0014 C.3    1 <0>       0.1600
   13 H13       5.6270     0.4868     1.1588 H      1 <0>       0.0700
   14 C14       3.7137    -0.4818     1.3790 C.3    1 <0>      -0.1100
   15 C15       3.5702    -0.1421     2.8639 C.3    1 <0>       0.0700
   16 O16       2.1940    -0.2224     3.2400 O.3    1 <0>      -0.5700
   17 C17       4.3724    -1.5372    -2.5226 C.2    1 <0>      -0.3700
   18 C18       3.2669    -1.6794    -3.3096 C.2    1 <0>       0.5100
   19 N19       3.3820    -2.1647    -4.5955 N.pl3  1 <0>      -0.7200
   20 C20       4.6977    -2.5315    -5.1250 C.3    1 <0>       0.1700
   21 C21       4.5490    -3.0292    -6.5397 C.ar   1 <0>      -0.1200
   22 C22       4.3274    -4.3744    -6.7907 C.ar   1 <0>      -0.0600
   23 C23       4.1962    -4.7877    -8.1079 C.ar   1 <0>      -0.1200
   24 C24       4.2900    -3.8519    -9.1200 C.ar   1 <0>       0.0900
   25 N25       4.5018    -2.5785    -8.8444 N.ar   1 <0>      -0.1200
   26 O26       4.5921    -1.6483    -9.9081 O.3    1 <0>      -0.5400
   27 C27       4.6262    -2.1493    -7.6026 C.ar   1 <0>       0.1000
   28 N28       2.0394    -1.3336    -2.8042 N.pl3  1 <0>      -0.3600
   29 N29       0.7509    -1.3631    -3.3497 N.2    1 <0>      -0.3400
   30 C30      -0.1008    -0.9300    -2.4498 C.2    1 <0>       0.1100
   31 H31       1.1088     1.7936    -0.0253 H      1 <0>       0.0500
   32 H32      -0.4179     1.8527    -0.9386 H      1 <0>       0.0500
   33 H33      -0.4441     1.8712     0.8411 H      1 <0>       0.0500
   34 H34       0.5577    -0.4325     0.8320 H      1 <0>       0.0800
   35 H35      -1.0422    -0.3688     0.0546 H      1 <0>       0.0600
   36 H36       6.6220    -1.5036    -1.9592 H      1 <0>       0.0900
   37 H37       7.2429    -0.1743    -0.9469 H      1 <0>       0.0700
   38 H38       6.9130    -3.0958    -0.1216 H      1 <0>       0.0700
   39 H39       8.4481    -2.2323    -0.3824 H      1 <0>       0.0800
   40 H40       7.9210    -2.3510     2.0294 H      1 <0>       0.0700
   41 H41       7.8655    -0.6654     1.4611 H      1 <0>       0.0700
   42 H42       5.4481    -2.5012     1.7848 H      1 <0>       0.0700
   43 H43       5.9167    -1.2048     2.9118 H      1 <0>       0.0800
   44 H44       3.1972     0.2703     0.7827 H      1 <0>       0.1200
   45 H45       3.2764    -1.4615     1.1865 H      1 <0>       0.0800
   46 H46       4.1506    -0.8495     3.4562 H      1 <0>       0.0400
   47 H47       3.9374     0.8685     3.0426 H      1 <0>       0.0400
   48 H48       2.0180     0.0545     4.1497 H      1 <0>       0.3800
   49 H49       5.3487    -1.8029    -2.9002 H      1 <0>       0.1600
   50 H50       2.5917    -2.2632    -5.1493 H      1 <0>       0.4200
   51 H51       5.3502    -1.6584    -5.1137 H      1 <0>       0.0900
   52 H52       5.1318    -3.3175    -4.5071 H      1 <0>       0.1000
   53 H53       4.2588    -5.0840    -5.9794 H      1 <0>       0.1600
   54 H54       4.0231    -5.8283    -8.3398 H      1 <0>       0.1700
   55 H55       4.1893    -4.1659   -10.1484 H      1 <0>       0.1900
   56 H56       4.7985    -1.0997    -7.4154 H      1 <0>       0.1800
   57 H57      -1.1683    -0.8418    -2.5871 H      1 <0>       0.1900
@<TRIPOS>BOND
   1    1    2 1
   2    1   31 1
   3    1   32 1
   4    1   33 1
   5    2    3 1
   6    2   34 1
   7    2   35 1
   8    3   30 1
   9    3    4 2
  10    4   28 1
  11    4    5 1
  12    5    6 2
  13    6    7 1
  14    6   17 1
  15    7   12 1
  16    7    8 1
  17    8    9 1
  18    8   36 1
  19    8   37 1
  20    9   10 1
  21    9   38 1
  22    9   39 1
  23   10   11 1
  24   10   40 1
  25   10   41 1
  26   11   12 1
  27   11   42 1
  28   11   43 1
  29   12   13 1
  30   12   14 1
  31   14   15 1
  32   14   44 1
  33   14   45 1
  34   15   16 1
  35   15   46 1
  36   15   47 1
  37   16   48 1
  38   17   18 2
  39   17   49 1
  40   18   19 1
  41   18   28 1
  42   19   20 1
  43   19   50 1
  44   20   21 1
  45   20   51 1
  46   20   52 1
  47   21   27 ar
  48   21   22 ar
  49   22   23 ar
  50   22   53 1
  51   23   24 ar
  52   23   54 1
  53   24   25 ar
  54   24   55 1
  55   25   26 1
  56   25   27 ar
  57   27   56 1
  58   28   29 1
  59   29   30 2
  60   30   57 1
