@<TRIPOS>MOLECULE
ZINC000017945165
  44   47    0    0    0
SMALL
USER_CHARGES
NO_NAME
@<TRIPOS>ATOM
    1 C1       -0.0184     1.5028     0.0103 C.3    1 <0>      -0.1000
    2 C2        0.0021    -0.0041     0.0020 C.2    1 <0>       0.1300
    3 C3        0.0079    -0.7889    -1.0855 C.2    1 <0>      -0.2500
    4 C4        0.0320    -2.1348    -0.6499 C.2    1 <0>       0.3100
    5 N5        0.0364    -2.1413     0.6494 N.2    1 <0>      -0.3100
    6 N6        0.0238    -0.8080     1.0908 N.pl3  1 <0>      -0.4700
    7 N7        0.0506    -3.1835    -1.5748 N.pl3  1 <0>      -0.6200
    8 C8        0.3436    -2.8957    -2.8843 C.2    1 <0>       0.2500
    9 C9        0.3449    -1.6392    -3.3773 C.2    1 <0>      -0.2900
   10 C10       0.6782    -1.3939    -4.7226 C.2    1 <0>       0.4100
   11 O11       0.6628    -0.2515    -5.1374 O.2    1 <0>      -0.4700
   12 C12       1.0529    -2.5072    -5.6590 C.3    1 <0>      -0.1600
   13 C13       1.6715    -3.6508    -4.8477 C.3    1 <0>      -0.0500
   14 C14       1.9724    -4.8340    -5.7699 C.3    1 <0>      -0.1400
   15 C15       2.9642    -3.1722    -4.1838 C.3    1 <0>      -0.1500
   16 C16       0.6664    -4.0748    -3.7758 C.3    1 <0>      -0.0900
   17 C17      -0.0085    -0.4262    -2.5433 C.3    1 <0>       0.1100
   18 H18       0.7184     0.3648    -2.7280 H      1 <0>       0.0900
   19 C19      -1.3840     0.0589    -2.9222 C.ar   1 <0>      -0.0600
   20 C20      -2.4766    -0.7746    -2.7721 C.ar   1 <0>      -0.1100
   21 C21      -3.7383    -0.3296    -3.1197 C.ar   1 <0>      -0.1200
   22 C22      -3.9076     0.9490    -3.6170 C.ar   1 <0>      -0.1300
   23 C23      -2.8152     1.7828    -3.7664 C.ar   1 <0>      -0.1200
   24 C24      -1.5540     1.3393    -3.4147 C.ar   1 <0>      -0.1000
   25 H25       1.0042     1.8801     0.0026 H      1 <0>       0.0900
   26 H26      -0.5455     1.8639    -0.8728 H      1 <0>       0.0900
   27 H27      -0.5286     1.8543     0.9071 H      1 <0>       0.0800
   28 H28       0.0247    -0.5144     2.0153 H      1 <0>       0.4400
   29 H29      -0.1390    -4.0933    -1.2971 H      1 <0>       0.4200
   30 H30       0.1621    -2.8658    -6.1748 H      1 <0>       0.1000
   31 H31       1.7772    -2.1432    -6.3877 H      1 <0>       0.1000
   32 H32       2.6720    -4.5216    -6.5452 H      1 <0>       0.0600
   33 H33       2.4120    -5.6448    -5.1890 H      1 <0>       0.0600
   34 H34       1.0475    -5.1784    -6.2325 H      1 <0>       0.0600
   35 H35       2.7438    -2.3364    -3.5198 H      1 <0>       0.0600
   36 H36       3.4006    -3.9884    -3.6080 H      1 <0>       0.0600
   37 H37       3.6691    -2.8510    -4.9506 H      1 <0>       0.0600
   38 H38       1.0940    -4.8775    -3.1749 H      1 <0>       0.0900
   39 H39      -0.2469    -4.4282    -4.2545 H      1 <0>       0.1000
   40 H40      -2.3443    -1.7735    -2.3835 H      1 <0>       0.1100
   41 H41      -4.5918    -0.9810    -3.0030 H      1 <0>       0.1200
   42 H42      -4.8933     1.2964    -3.8893 H      1 <0>       0.1200
   43 H43      -2.9475     2.7816    -4.1553 H      1 <0>       0.1200
   44 H44      -0.7006     1.9908    -3.5314 H      1 <0>       0.1200
@<TRIPOS>BOND
   1    1    2 1
   2    1   25 1
   3    1   26 1
   4    1   27 1
   5    2    6 1
   6    2    3 2
   7    3   17 1
   8    3    4 1
   9    4    5 2
  10    4    7 1
  11    5    6 1
  12    6   28 1
  13    7    8 1
  14    7   29 1
  15    8   16 1
  16    8    9 2
  17    9   10 1
  18    9   17 1
  19   10   11 2
  20   10   12 1
  21   12   13 1
  22   12   30 1
  23   12   31 1
  24   13   14 1
  25   13   15 1
  26   13   16 1
  27   14   32 1
  28   14   33 1
  29   14   34 1
  30   15   35 1
  31   15   36 1
  32   15   37 1
  33   16   38 1
  34   16   39 1
  35   17   18 1
  36   17   19 1
  37   19   24 ar
  38   19   20 ar
  39   20   21 ar
  40   20   40 1
  41   21   22 ar
  42   21   41 1
  43   22   23 ar
  44   22   42 1
  45   23   24 ar
  46   23   43 1
  47   24   44 1
