@<TRIPOS>MOLECULE
ZINC000001669805
38    40    1     0     0
SMALL
USER_CHARGES
@<TRIPOS>ATOM
1      C1     -0.2757    1.4016   -0.1824 C.3      1 ZINC000001669805    0.0300
2      O2     -0.1574   -0.0167   -0.0546 O.3      1 ZINC000001669805   -0.3200
3      C3      0.2780   -0.7009   -1.1463 C.ar     1 ZINC000001669805    0.0600
4      C4      0.5898   -0.0219   -2.3121 C.ar     1 ZINC000001669805   -0.1700
5      C5      1.0330   -0.7190   -3.4215 C.ar     1 ZINC000001669805   -0.1300
6      C6      1.1657   -2.0939   -3.3711 C.ar     1 ZINC000001669805   -0.1100
7      C7      0.8561   -2.7796   -2.2113 C.ar     1 ZINC000001669805   -0.1600
8      C8      0.4170   -2.0867   -1.0927 C.ar     1 ZINC000001669805    0.1800
9      N9      0.1033   -2.7784    0.0830 N.pl3    1 ZINC000001669805   -0.6800
10     C10     0.0786   -4.1743    0.0861 C.ar     1 ZINC000001669805    0.1600
11     C11     0.6324   -4.8748    1.1642 C.ar     1 ZINC000001669805   -0.1400
12     C12     0.6217   -6.2341    1.1929 C.ar     1 ZINC000001669805   -0.0800
13     C13     0.0490   -6.9528    0.1308 C.ar     1 ZINC000001669805   -0.0700
14     C14     0.0239   -8.3627    0.1351 C.ar     1 ZINC000001669805    0.0900
15     O15     0.5578   -9.0535    1.1753 O.3      1 ZINC000001669805   -0.4900
16     C16    -0.5463   -9.0331   -0.9231 C.ar     1 ZINC000001669805   -0.0600
17     C17    -1.0969   -8.3358   -1.9954 C.ar     1 ZINC000001669805   -0.6300
18     S18    -1.8175   -9.2291   -3.3323 S.o2     1 ZINC000001669805    2.6900
19     O19    -1.6418   -8.4141   -4.5243 O.co2    1 ZINC000001669805   -1.0600
20     O20    -1.1038  -10.4932   -3.4251 O.co2    1 ZINC000001669805   -1.0600
21     O21    -3.2216   -9.4179   -3.0021 O.co2    1 ZINC000001669805   -1.0600
22     C22    -1.0876   -6.9752   -2.0268 C.ar     1 ZINC000001669805   -0.0200
23     C23    -0.5146   -6.2529   -0.9651 C.ar     1 ZINC000001669805   -0.0400
24     C24    -0.4959   -4.8489   -0.9696 C.ar     1 ZINC000001669805   -0.1400
25     H25    -0.9836    1.6370   -0.9771 H        1 ZINC000001669805    0.0500
26     H26    -0.6316    1.8228    0.7578 H        1 ZINC000001669805    0.1000
27     H27     0.6981    1.8270   -0.4255 H        1 ZINC000001669805    0.0500
28     H28     0.4867    1.0523   -2.3552 H        1 ZINC000001669805    0.1300
29     H29     1.2757   -0.1875   -4.3299 H        1 ZINC000001669805    0.1200
30     H30     1.5118   -2.6339   -4.2400 H        1 ZINC000001669805    0.1300
31     H31     0.9603   -3.8540   -2.1747 H        1 ZINC000001669805    0.1400
32     H32    -0.0970   -2.2880    0.8955 H        1 ZINC000001669805    0.4100
33     H33     1.0744   -4.3282    1.9841 H        1 ZINC000001669805    0.1200
34     H34     1.0535   -6.7606    2.0312 H        1 ZINC000001669805    0.1300
35     H35    -0.0693   -9.2384    1.8878 H        1 ZINC000001669805    0.3800
36     H36    -0.5666  -10.1129   -0.9220 H        1 ZINC000001669805    0.1400
37     H37    -1.5192   -6.4508   -2.8665 H        1 ZINC000001669805    0.1400
38     H38    -0.9249   -4.3018   -1.7961 H        1 ZINC000001669805    0.1400
@<TRIPOS>BOND
1     1     2     1
2     1     25    1
3     1     26    1
4     1     27    1
5     2     3     1
6     3     8     ar
7     3     4     ar
8     4     5     ar
9     4     28    1
10    5     6     ar
11    5     29    1
12    6     7     ar
13    6     30    1
14    7     8     ar
15    7     31    1
16    8     9     1
17    9     10    1
18    9     32    1
19    10    24    ar
20    10    11    ar
21    11    12    ar
22    11    33    1
23    12    13    ar
24    12    34    1
25    13    23    ar
26    13    14    ar
27    14    15    1
28    14    16    ar
29    15    35    1
30    16    17    ar
31    16    36    1
32    17    18    1
33    17    22    ar
34    18    19    ar
35    18    20    ar
36    18    21    ar
37    22    23    ar
38    22    37    1
39    23    24    ar
40    24    38    1
@<TRIPOS>SUBSTRUCTURE
1   ZINC000001669805 1     RESIDUE    1   A     ZIN   1
