@<TRIPOS>MOLECULE
ZINC000003779067
43    47    1     0     0
SMALL
USER_CHARGES
@<TRIPOS>ATOM
1      C1     -0.0173    1.4248    0.0099 C.3      1 ZINC000003779067    0.0100
2      O2      0.0021   -0.0041    0.0020 O.3      1 ZINC000003779067   -0.2900
3      C3     -1.2014   -0.6380    0.0101 C.ar     1 ZINC000003779067    0.1400
4      C4     -2.3764    0.1140    0.0196 C.ar     1 ZINC000003779067   -0.1200
5      C5     -3.5975   -0.4914    0.0270 C.ar     1 ZINC000003779067   -0.0700
6      C6     -3.6813   -1.8906    0.0243 C.ar     1 ZINC000003779067   -0.0100
7      C7     -4.9129   -2.5656    0.0283 C.ar     1 ZINC000003779067   -0.0600
8      C8     -4.9156   -3.9484    0.0264 C.ar     1 ZINC000003779067    0.1400
9      C9     -6.2171   -4.6673    0.0293 C.ar     1 ZINC000003779067   -0.0900
10     C10    -7.3743   -4.0227   -0.4165 C.ar     1 ZINC000003779067   -0.0600
11     C11    -8.5549   -4.7488   -0.3764 C.ar     1 ZINC000003779067    0.0400
12     C12    -8.5813   -6.0724    0.0931 C.ar     1 ZINC000003779067    0.0800
13     C13    -7.4253   -6.7088    0.5314 C.ar     1 ZINC000003779067   -0.0900
14     C14    -6.2466   -5.9851    0.4857 C.ar     1 ZINC000003779067   -0.0600
15     C15    -4.9502   -6.6251    0.9184 C.3      1 ZINC000003779067   -0.1000
16     C16    -3.8193   -6.1208    0.0226 C.3      1 ZINC000003779067    0.0500
17     N17    -3.7776   -4.6539    0.0215 N.ar     1 ZINC000003779067   -0.3300
18     C18    -2.6001   -4.0669    0.0159 C.ar     1 ZINC000003779067    0.2000
19     C19    -2.4928   -2.6694    0.0161 C.ar     1 ZINC000003779067   -0.0800
20     C20    -1.2453   -2.0196    0.0031 C.ar     1 ZINC000003779067    0.0900
21     O21    -0.0950   -2.7428   -0.0113 O.3      1 ZINC000003779067   -0.3100
22     C22     0.4398   -3.0857   -1.2913 C.3      1 ZINC000003779067    0.0300
23     O23    -9.8512   -6.5325    0.0258 O.3      1 ZINC000003779067   -0.2900
24     C24   -10.6796   -5.3606   -0.1215 C.3      1 ZINC000003779067    0.2100
25     O25    -9.8078   -4.3901   -0.7379 O.3      1 ZINC000003779067   -0.3000
26     H26     1.0053    1.8021    0.0021 H        1 ZINC000003779067    0.1200
27     H27    -0.5445    1.7859   -0.8732 H        1 ZINC000003779067    0.0700
28     H28    -0.5275    1.7763    0.9067 H        1 ZINC000003779067    0.0700
29     H29    -2.3175    1.1924    0.0214 H        1 ZINC000003779067    0.1600
30     H30    -4.4978    0.1051    0.0353 H        1 ZINC000003779067    0.1600
31     H31    -5.8416   -2.0143    0.0333 H        1 ZINC000003779067    0.1800
32     H32    -7.3500   -3.0045   -0.7758 H        1 ZINC000003779067    0.1600
33     H33    -7.4466   -7.7263    0.8931 H        1 ZINC000003779067    0.1600
34     H34    -4.7406   -6.3590    1.9544 H        1 ZINC000003779067    0.1100
35     H35    -5.0308   -7.7083    0.8284 H        1 ZINC000003779067    0.1300
36     H36    -2.8691   -6.5073    0.3911 H        1 ZINC000003779067    0.1400
37     H37    -3.9810   -6.4761   -0.9951 H        1 ZINC000003779067    0.1300
38     H38    -1.7042   -4.6701    0.0117 H        1 ZINC000003779067    0.2100
39     H39     0.6591   -2.1754   -1.8492 H        1 ZINC000003779067    0.0600
40     H40     1.3562   -3.6611   -1.1599 H        1 ZINC000003779067    0.1100
41     H41    -0.2881   -3.6823   -1.8412 H        1 ZINC000003779067    0.0500
42     H42   -11.5312   -5.5737   -0.7677 H        1 ZINC000003779067    0.1400
43     H43   -11.0172   -5.0065    0.8525 H        1 ZINC000003779067    0.1000
@<TRIPOS>BOND
1     1     2     1
2     1     26    1
3     1     27    1
4     1     28    1
5     2     3     1
6     3     20    ar
7     3     4     ar
8     4     5     ar
9     4     29    1
10    5     6     ar
11    5     30    1
12    6     19    ar
13    6     7     ar
14    7     8     ar
15    7     31    1
16    8     17    ar
17    8     9     1
18    9     14    ar
19    9     10    ar
20    10    11    ar
21    10    32    1
22    11    25    1
23    11    12    ar
24    12    13    ar
25    12    23    1
26    13    14    ar
27    13    33    1
28    14    15    1
29    15    16    1
30    15    34    1
31    15    35    1
32    16    17    1
33    16    36    1
34    16    37    1
35    17    18    ar
36    18    19    ar
37    18    38    1
38    19    20    ar
39    20    21    1
40    21    22    1
41    22    39    1
42    22    40    1
43    22    41    1
44    23    24    1
45    24    25    1
46    24    42    1
47    24    43    1
@<TRIPOS>SUBSTRUCTURE
1   ZINC000003779067 1     RESIDUE    1   A     ZIN   1
