@<TRIPOS>MOLECULE
ZINC000101930723
  41   43    0    0    0
SMALL
USER_CHARGES
NO_NAME
@<TRIPOS>ATOM
    1 C1       -1.1090     1.7372     1.1246 C.3    1 <0>       0.0600
    2 O2       -1.0567     0.2867     1.1656 O.3    1 <0>      -0.3700
    3 C3       -2.2111    -0.3728     0.9532 C.2    1 <0>       0.6500
    4 O4       -3.2343     0.2467     0.7394 O.2    1 <0>      -0.5700
    5 N5       -2.2318    -1.7202     0.9777 N.am   1 <0>      -0.7100
    6 C6       -3.4879    -2.4378     0.7465 C.3    1 <0>       0.1400
    7 C7       -3.2366    -3.9449     0.8277 C.3    1 <0>      -0.0700
    8 C8       -4.5288    -4.6831     0.5899 C.2    1 <0>       0.1200
    9 C9       -5.0518    -5.0211    -0.6038 C.2    1 <0>      -0.2600
   10 C10      -6.3169    -5.7240    -0.2799 C.2    1 <0>       0.0000
   11 N11      -6.4064    -5.7284     1.0123 N.2    1 <0>      -0.1900
   12 N12      -5.3845    -5.1394     1.5370 N.pl3  1 <0>      -0.4000
   13 C13      -7.1615    -6.2401    -1.3750 C.2    1 <0>       0.4600
   14 O14      -8.2812    -6.6663    -1.1723 O.2    1 <0>      -0.3900
   15 C15      -6.5696    -6.2107    -2.7417 C.2    1 <0>       0.1500
   16 N16      -7.2266    -6.8664    -3.7609 N.pl3  1 <0>      -0.6800
   17 C17      -7.4676    -8.2381    -3.6670 C.ar   1 <0>       0.1900
   18 C18      -8.2534    -8.8741    -4.6206 C.ar   1 <0>      -0.1700
   19 C19      -8.4897   -10.2312    -4.5245 C.ar   1 <0>      -0.0800
   20 C20      -7.9455   -10.9574    -3.4809 C.ar   1 <0>      -0.1600
   21 C21      -7.1630   -10.3278    -2.5300 C.ar   1 <0>      -0.0800
   22 C22      -6.9177    -8.9721    -2.6229 C.ar   1 <0>      -0.1700
   23 C23      -5.4161    -5.5676    -3.0232 C.2    1 <0>      -0.1800
   24 C24      -4.6414    -4.8402    -2.0067 C.2    1 <0>       0.4700
   25 O25      -3.7064    -4.1217    -2.3102 O.2    1 <0>      -0.4300
   26 H26      -0.1144     2.1420     1.3111 H      1 <0>       0.1100
   27 H27      -1.4548     2.0607     0.1429 H      1 <0>       0.0700
   28 H28      -1.7973     2.0977     1.8892 H      1 <0>       0.0600
   29 H29      -1.4150    -2.2148     1.1483 H      1 <0>       0.4100
   30 H30      -4.2159    -2.1495     1.5048 H      1 <0>       0.0700
   31 H31      -3.8734    -2.1865    -0.2415 H      1 <0>       0.0800
   32 H32      -2.5086    -4.2332     0.0695 H      1 <0>       0.1200
   33 H33      -2.8511    -4.1962     1.8158 H      1 <0>       0.1000
   34 H34      -5.2492    -5.0305     2.4913 H      1 <0>       0.4500
   35 H35      -7.5214    -6.3746    -4.5433 H      1 <0>       0.4200
   36 H36      -8.6790    -8.3076    -5.4357 H      1 <0>       0.1300
   37 H37      -9.1006   -10.7260    -5.2650 H      1 <0>       0.1300
   38 H38      -8.1323   -12.0186    -3.4080 H      1 <0>       0.1200
   39 H39      -6.7396   -10.8980    -1.7164 H      1 <0>       0.1200
   40 H40      -6.3063    -8.4811    -1.8802 H      1 <0>       0.1100
   41 H41      -5.0463    -5.5891    -4.0377 H      1 <0>       0.1600
@<TRIPOS>BOND
   1    1    2 1
   2    1   26 1
   3    1   27 1
   4    1   28 1
   5    2    3 1
   6    3    4 2
   7    3    5 am
   8    5    6 1
   9    5   29 1
  10    6    7 1
  11    6   30 1
  12    6   31 1
  13    7    8 1
  14    7   32 1
  15    7   33 1
  16    8   12 1
  17    8    9 2
  18    9   24 1
  19    9   10 1
  20   10   11 2
  21   10   13 1
  22   11   12 1
  23   12   34 1
  24   13   14 2
  25   13   15 1
  26   15   16 1
  27   15   23 2
  28   16   17 1
  29   16   35 1
  30   17   22 ar
  31   17   18 ar
  32   18   19 ar
  33   18   36 1
  34   19   20 ar
  35   19   37 1
  36   20   21 ar
  37   20   38 1
  38   21   22 ar
  39   21   39 1
  40   22   40 1
  41   23   24 1
  42   23   41 1
  43   24   25 2
