@<TRIPOS>MOLECULE
ZINC000123747095
28    30    1     0     0
SMALL
USER_CHARGES
@<TRIPOS>ATOM
1      O1      0.0021   -0.0041    0.0020 O.2      1 ZINC000123747095   -0.4700
2      C2     -0.0145    1.2152    0.0087 C.2      1 ZINC000123747095    0.4600
3      C3      1.2014    1.9394    0.0010 C.2      1 ZINC000123747095   -0.2500
4      C4      2.3859    1.2768   -0.0139 C.2      1 ZINC000123747095    0.0400
5      C5      3.6018    2.0010   -0.0216 C.2      1 ZINC000123747095   -0.2100
6      C6      4.8566    1.4490   -0.0420 C.2      1 ZINC000123747095   -0.0900
7      C7      5.8609    2.3869   -0.0460 C.2      1 ZINC000123747095   -0.1500
8      C8      5.4493    3.6608   -0.0294 C.2      1 ZINC000123747095   -0.2400
9      S9      3.7458    3.7534   -0.0142 S.3      1 ZINC000123747095    0.2000
10     C10    -1.2989    1.9336    0.0187 C.2      1 ZINC000123747095   -0.2400
11     C11    -1.4791    3.2852    0.0209 C.2      1 ZINC000123747095    0.1300
12     N12    -2.8058    3.5707    0.0301 N.pl3    1 ZINC000123747095   -0.5700
13     C13    -3.5491    2.4116    0.0344 C.ar     1 ZINC000123747095    0.2700
14     N14    -4.8542    2.1751    0.0430 N.ar     1 ZINC000123747095   -0.5000
15     C15    -5.3350    0.9496    0.0454 C.ar     1 ZINC000123747095    0.1400
16     C16    -4.5006   -0.1563    0.0394 C.ar     1 ZINC000123747095   -0.1900
17     C17    -3.1293    0.0292    0.0302 C.ar     1 ZINC000123747095   -0.0200
18     C18    -2.6448    1.3355    0.0219 C.ar     1 ZINC000123747095   -0.1100
19     H19     1.1867    3.0193    0.0069 H        1 ZINC000123747095    0.1200
20     H20     2.4006    0.1969   -0.0198 H        1 ZINC000123747095    0.1500
21     H21     5.0375    0.3843   -0.0539 H        1 ZINC000123747095    0.1500
22     H22     6.9063    2.1161   -0.0609 H        1 ZINC000123747095    0.1400
23     H23     6.1083    4.5164   -0.0298 H        1 ZINC000123747095    0.1700
24     H24    -0.6857    4.0180    0.0166 H        1 ZINC000123747095    0.1900
25     H25    -3.1784    4.4663    0.0338 H        1 ZINC000123747095    0.4300
26     H26    -6.4050    0.8029    0.0526 H        1 ZINC000123747095    0.1600
27     H27    -4.9162   -1.1531    0.0422 H        1 ZINC000123747095    0.1400
28     H28    -2.4544   -0.8140    0.0254 H        1 ZINC000123747095    0.1400
@<TRIPOS>BOND
1     1     2     2
2     2     3     1
3     2     10    1
4     3     4     2
5     3     19    1
6     4     5     1
7     4     20    1
8     5     9     1
9     5     6     2
10    6     7     1
11    6     21    1
12    7     8     2
13    7     22    1
14    8     9     1
15    8     23    1
16    10    18    1
17    10    11    2
18    11    12    1
19    11    24    1
20    12    13    1
21    12    25    1
22    13    18    ar
23    13    14    ar
24    14    15    ar
25    15    16    ar
26    15    26    1
27    16    17    ar
28    16    27    1
29    17    18    ar
30    17    28    1
@<TRIPOS>SUBSTRUCTURE
1   ZINC000123747095 1     RESIDUE    1   A     ZIN   1
