@<TRIPOS>MOLECULE
ZINC000045253245
61    65    1     0     0
SMALL
USER_CHARGES
@<TRIPOS>ATOM
1      C1     -0.0173    1.4248    0.0099 C.3      1 ZINC000045253245    0.0200
2      O2      0.0021   -0.0041    0.0020 O.3      1 ZINC000045253245   -0.3000
3      C3     -1.2011   -0.6379    0.0101 C.ar     1 ZINC000045253245    0.1400
4      C4     -2.3722    0.1006    0.0195 C.ar     1 ZINC000045253245   -0.2000
5      C5     -3.6048   -0.5491    0.0278 C.ar     1 ZINC000045253245    0.0600
6      C6     -4.8607    0.2409    0.0374 C.2      1 ZINC000045253245    0.0500
7      C7     -6.1210   -0.2632    0.0515 C.2      1 ZINC000045253245    0.0000
8      N8     -6.9745    0.8106    0.0567 N.pl3    1 ZINC000045253245   -0.4000
9      C9     -8.3655    0.7601    0.0714 C.ar     1 ZINC000045253245    0.6300
10     N10    -8.9865   -0.4130    0.0875 N.ar     1 ZINC000045253245   -0.6200
11     C11   -10.3153   -0.4622    0.1019 C.ar     1 ZINC000045253245    0.5900
12     N12   -10.9607   -1.6820    0.1191 N.3      1 ZINC000045253245   -0.4500
13     C13   -11.8669   -1.7824    1.2723 C.3      1 ZINC000045253245    0.0300
14     C14   -12.6046   -3.1229    1.2197 C.3      1 ZINC000045253245    0.0600
15     O15   -11.6489   -4.1863    1.1879 O.3      1 ZINC000045253245   -0.3800
16     C16   -10.7505   -4.1200    0.0771 C.3      1 ZINC000045253245    0.0600
17     C17    -9.9940   -2.7896    0.1182 C.3      1 ZINC000045253245    0.0300
18     N18   -11.0217    0.6636    0.1003 N.ar     1 ZINC000045253245   -0.5800
19     C19   -10.3990    1.8377    0.0842 C.ar     1 ZINC000045253245    0.5900
20     N20   -11.1314    3.0075    0.0826 N.3      1 ZINC000045253245   -0.4500
21     C21   -12.0674    3.0414   -1.0506 C.3      1 ZINC000045253245    0.0300
22     C22   -12.8990    4.3249   -0.9804 C.3      1 ZINC000045253245    0.0600
23     O23   -12.0224    5.4549   -0.9682 O.3      1 ZINC000045253245   -0.3800
24     C24   -11.0976    5.4543    0.1228 C.3      1 ZINC000045253245    0.0600
25     C25   -10.2478    4.1823    0.0637 C.3      1 ZINC000045253245    0.0300
26     N26    -9.0700    1.8850    0.0749 N.ar     1 ZINC000045253245   -0.6200
27     C27    -6.2071    1.9348    0.0457 C.2      1 ZINC000045253245    0.2400
28     N28    -4.9516    1.5870    0.0397 N.2      1 ZINC000045253245   -0.4600
29     C29    -3.6567   -1.9416    0.0266 C.ar     1 ZINC000045253245   -0.2200
30     C30    -2.4839   -2.6774    0.0171 C.ar     1 ZINC000045253245    0.1400
31     O31    -2.5342   -4.0364    0.0159 O.3      1 ZINC000045253245   -0.3000
32     C32    -3.8306   -4.6376    0.0248 C.3      1 ZINC000045253245    0.0200
33     C33    -1.2547   -2.0274    0.0032 C.ar     1 ZINC000045253245    0.0400
34     O34    -0.1027   -2.7520   -0.0061 O.3      1 ZINC000045253245   -0.4700
35     H35     1.0053    1.8021    0.0021 H        1 ZINC000045253245    0.1000
36     H36    -0.5445    1.7859   -0.8732 H        1 ZINC000045253245    0.0600
37     H37    -0.5275    1.7763    0.9067 H        1 ZINC000045253245    0.0600
38     H38    -2.3303    1.1798    0.0208 H        1 ZINC000045253245    0.1500
39     H39    -6.3979   -1.3071    0.0571 H        1 ZINC000045253245    0.1900
40     H40   -11.2900   -1.7204    2.1950 H        1 ZINC000045253245    0.0600
41     H41   -12.5901   -0.9674    1.2390 H        1 ZINC000045253245    0.1100
42     H42   -13.2350   -3.2263    2.1028 H        1 ZINC000045253245    0.1100
43     H43   -13.2234   -3.1628    0.3233 H        1 ZINC000045253245    0.0700
44     H44   -10.0399   -4.9446    0.1340 H        1 ZINC000045253245    0.1100
45     H45   -11.3154   -4.1889   -0.8525 H        1 ZINC000045253245    0.0700
46     H46    -9.3500   -2.7099   -0.7576 H        1 ZINC000045253245    0.1000
47     H47    -9.3872   -2.7437    1.0225 H        1 ZINC000045253245    0.0700
48     H48   -11.5077    3.0211   -1.9857 H        1 ZINC000045253245    0.0600
49     H49   -12.7286    2.1762   -1.0026 H        1 ZINC000045253245    0.1100
50     H50   -13.5543    4.3820   -1.8495 H        1 ZINC000045253245    0.1100
51     H51   -13.4995    4.3202   -0.0707 H        1 ZINC000045253245    0.0700
52     H52   -10.4502    6.3283    0.0515 H        1 ZINC000045253245    0.1100
53     H53   -11.6457    5.4825    1.0645 H        1 ZINC000045253245    0.0700
54     H54    -9.5808    4.1499    0.9252 H        1 ZINC000045253245    0.1000
55     H55    -9.6590    4.1802   -0.8536 H        1 ZINC000045253245    0.0700
56     H56    -6.5782    2.9491    0.0459 H        1 ZINC000045253245    0.2200
57     H57    -4.6114   -2.4466    0.0334 H        1 ZINC000045253245    0.1400
58     H58    -4.3698   -4.3254    0.9191 H        1 ZINC000045253245    0.0600
59     H59    -4.3829   -4.3233   -0.8608 H        1 ZINC000045253245    0.0600
60     H60    -3.7278   -5.7228    0.0227 H        1 ZINC000045253245    0.1000
61     H61     0.2215   -2.9640   -0.8921 H        1 ZINC000045253245    0.3800
@<TRIPOS>BOND
1     1     2     1
2     1     35    1
3     1     36    1
4     1     37    1
5     2     3     1
6     3     33    ar
7     3     4     ar
8     4     5     ar
9     4     38    1
10    5     6     1
11    5     29    ar
12    6     28    1
13    6     7     2
14    7     8     1
15    7     39    1
16    8     9     1
17    8     27    1
18    9     26    ar
19    9     10    ar
20    10    11    ar
21    11    12    1
22    11    18    ar
23    12    17    1
24    12    13    1
25    13    14    1
26    13    40    1
27    13    41    1
28    14    15    1
29    14    42    1
30    14    43    1
31    15    16    1
32    16    17    1
33    16    44    1
34    16    45    1
35    17    46    1
36    17    47    1
37    18    19    ar
38    19    20    1
39    19    26    ar
40    20    25    1
41    20    21    1
42    21    22    1
43    21    48    1
44    21    49    1
45    22    23    1
46    22    50    1
47    22    51    1
48    23    24    1
49    24    25    1
50    24    52    1
51    24    53    1
52    25    54    1
53    25    55    1
54    27    28    2
55    27    56    1
56    29    30    ar
57    29    57    1
58    30    31    1
59    30    33    ar
60    31    32    1
61    32    58    1
62    32    59    1
63    32    60    1
64    33    34    1
65    34    61    1
@<TRIPOS>SUBSTRUCTURE
1   ZINC000045253245 1     RESIDUE    1   A     ZIN   1
