@<TRIPOS>MOLECULE
ZINC000014594767
52    54    1     0     0
SMALL
USER_CHARGES
@<TRIPOS>ATOM
1      C1      0.8703    3.8054    0.3199 C.3      1 ZINC000014594767   -0.1400
2      C2      0.7691    2.3514   -0.0632 C.2      1 ZINC000014594767   -0.0700
3      C3      1.2133    1.4097    0.7703 C.2      1 ZINC000014594767   -0.1700
4      C4      1.7999    1.7890    2.0589 C.2      1 ZINC000014594767    0.2100
5      C5      2.2630    0.8133    2.9151 C.2      1 ZINC000014594767   -0.2800
6      C6      2.7331    1.1716    4.1839 C.2      1 ZINC000014594767    0.0800
7      C7      2.5519    2.4679    4.6231 C.2      1 ZINC000014594767   -0.3300
8      C8      1.7531    3.4315    3.7812 C.3      1 ZINC000014594767    0.1300
9      O9      1.8889    3.0940    2.3990 O.3      1 ZINC000014594767   -0.3000
10     C10     3.1086    2.9218    5.8351 C.2      1 ZINC000014594767    0.4300
11     O11     2.9398    4.0600    6.2294 O.2      1 ZINC000014594767   -0.4400
12     C12     3.9137    1.9368    6.6087 C.3      1 ZINC000014594767    0.0500
13     C13     5.2947    1.8039    5.9638 C.3      1 ZINC000014594767   -0.2000
14     O14     4.0908    2.1125    8.0209 O.3      1 ZINC000014594767   -0.3000
15     C15     4.2177    0.8953    8.6084 C.2      1 ZINC000014594767    0.4900
16     O16     4.4707    0.7039    9.7742 O.2      1 ZINC000014594767   -0.4200
17     C17     3.9902   -0.1957    7.5604 C.3      1 ZINC000014594767   -0.2000
18     H18     3.4161   -1.0241    7.9755 H        1 ZINC000014594767    0.1600
19     C19     5.2982   -0.6796    6.9895 C.2      1 ZINC000014594767    0.3800
20     O20     5.3200   -1.2384    5.9192 O.2      1 ZINC000014594767   -0.4300
21     C21     6.5790   -0.4662    7.7544 C.3      1 ZINC000014594767   -0.1800
22     C22     7.7504   -1.0469    6.9596 C.3      1 ZINC000014594767   -0.1100
23     C23     9.0508   -0.8302    7.7361 C.3      1 ZINC000014594767   -0.1200
24     C24    10.2222   -1.4108    6.9413 C.3      1 ZINC000014594767   -0.1200
25     C25    11.5226   -1.1942    7.7178 C.3      1 ZINC000014594767   -0.1500
26     C26     3.1743    0.5677    6.5046 C.3      1 ZINC000014594767   -0.1000
27     H27     2.1229    0.6447    6.7815 H        1 ZINC000014594767    0.1200
28     C28     3.3552    0.1084    5.0681 C.3      1 ZINC000014594767   -0.1000
29     H29     1.9162    4.0672    0.4795 H        1 ZINC000014594767    0.0800
30     H30     0.4596    4.4214   -0.4802 H        1 ZINC000014594767    0.0600
31     H31     0.3081    3.9794    1.2374 H        1 ZINC000014594767    0.0800
32     H32     0.3369    2.0720   -1.0127 H        1 ZINC000014594767    0.1300
33     H33     1.1408    0.3677    0.4958 H        1 ZINC000014594767    0.1500
34     H34     2.2628   -0.2224    2.6088 H        1 ZINC000014594767    0.1500
35     H35     0.7030    3.3790    4.0687 H        1 ZINC000014594767    0.0700
36     H36     2.1213    4.4447    3.9426 H        1 ZINC000014594767    0.1200
37     H37     5.7437    2.7917    5.8597 H        1 ZINC000014594767    0.0900
38     H38     5.9306    1.1801    6.5920 H        1 ZINC000014594767    0.0800
39     H39     5.1937    1.3453    4.9801 H        1 ZINC000014594767    0.1000
40     H40     6.7374    0.6013    7.9073 H        1 ZINC000014594767    0.1000
41     H41     6.5126   -0.9658    8.7209 H        1 ZINC000014594767    0.1100
42     H42     7.5921   -2.1144    6.8067 H        1 ZINC000014594767    0.0700
43     H43     7.8168   -0.5473    5.9931 H        1 ZINC000014594767    0.0700
44     H44     9.2091    0.2373    7.8890 H        1 ZINC000014594767    0.0600
45     H45     8.9844   -1.3298    8.7026 H        1 ZINC000014594767    0.0700
46     H46    10.0638   -2.4784    6.7884 H        1 ZINC000014594767    0.0600
47     H47    10.2886   -0.9113    5.9748 H        1 ZINC000014594767    0.0600
48     H48    12.3571   -1.6078    7.1516 H        1 ZINC000014594767    0.0500
49     H49    11.6809   -0.1266    7.8707 H        1 ZINC000014594767    0.0500
50     H50    11.4561   -1.6937    8.6843 H        1 ZINC000014594767    0.0500
51     H51     2.8496   -0.8451    4.9157 H        1 ZINC000014594767    0.1100
52     H52     4.4164    0.0088    4.8400 H        1 ZINC000014594767    0.1300
@<TRIPOS>BOND
1     1     2     1
2     1     29    1
3     1     30    1
4     1     31    1
5     2     3     2
6     2     32    1
7     3     4     1
8     3     33    1
9     4     9     1
10    4     5     2
11    5     6     1
12    5     34    1
13    6     28    1
14    6     7     2
15    7     8     1
16    7     10    1
17    8     9     1
18    8     35    1
19    8     36    1
20    10    11    2
21    10    12    1
22    12    26    1
23    12    13    1
24    12    14    1
25    13    37    1
26    13    38    1
27    13    39    1
28    14    15    1
29    15    16    2
30    15    17    1
31    17    18    1
32    17    19    1
33    17    26    1
34    19    20    2
35    19    21    1
36    21    22    1
37    21    40    1
38    21    41    1
39    22    23    1
40    22    42    1
41    22    43    1
42    23    24    1
43    23    44    1
44    23    45    1
45    24    25    1
46    24    46    1
47    24    47    1
48    25    48    1
49    25    49    1
50    25    50    1
51    26    27    1
52    26    28    1
53    28    51    1
54    28    52    1
@<TRIPOS>SUBSTRUCTURE
1   ZINC000014594767 1     RESIDUE    1   A     ZIN   1
