@<TRIPOS>MOLECULE
ZINC000096270381
97    101   1     0     0
SMALL
USER_CHARGES
@<TRIPOS>ATOM
1      C1      0.0988   -4.3594   -7.7720 C.3      1 ZINC000096270381   -0.1500
2      C2      0.4193   -5.0504   -6.4452 C.3      1 ZINC000096270381    0.0600
3      O3      1.1482   -4.1534   -5.6048 O.3      1 ZINC000096270381   -0.3000
4      C4      1.5131   -4.6143   -4.3815 C.ar     1 ZINC000096270381    0.2100
5      C5      1.1831   -5.9047   -3.9971 C.ar     1 ZINC000096270381   -0.2100
6      C6      1.5556   -6.3727   -2.7518 C.ar     1 ZINC000096270381   -0.0100
7      C7      1.1939   -7.7764   -2.3398 C.3      1 ZINC000096270381   -0.0300
8      C8      1.7141   -8.7649   -3.3854 C.3      1 ZINC000096270381   -0.1400
9      C9      1.8277   -8.0890   -0.9828 C.3      1 ZINC000096270381   -0.1400
10     C10    -0.3273   -7.9006   -2.2329 C.3      1 ZINC000096270381   -0.1400
11     C11     2.2597   -5.5593   -1.8805 C.ar     1 ZINC000096270381   -0.1700
12     C12     2.5952   -4.2730   -2.2477 C.ar     1 ZINC000096270381   -0.0300
13     C13     2.2295   -3.7903   -3.5046 C.ar     1 ZINC000096270381   -0.0900
14     C14     2.5862   -2.4125   -3.9041 C.2      1 ZINC000096270381    0.4500
15     N15     2.2016   -1.3685   -3.2475 N.2      1 ZINC000096270381   -0.5100
16     C16     2.7136   -0.1495   -3.8878 C.3      1 ZINC000096270381    0.1300
17     C17     1.5570    0.7406   -4.3470 C.3      1 ZINC000096270381   -0.1400
18     C18     3.6146    0.6038   -2.9435 C.ar     1 ZINC000096270381   -0.0600
19     C19     3.8080    1.9626   -3.1093 C.ar     1 ZINC000096270381   -0.1000
20     C20     4.6342    2.6540   -2.2435 C.ar     1 ZINC000096270381   -0.1100
21     C21     5.2678    1.9861   -1.2108 C.ar     1 ZINC000096270381   -0.0300
22     Cl22    6.3053    2.8540   -0.1227 Cl       1 ZINC000096270381   -0.0700
23     C23     5.0739    0.6262   -1.0454 C.ar     1 ZINC000096270381   -0.1100
24     C24     4.2430   -0.0631   -1.9084 C.ar     1 ZINC000096270381   -0.0800
25     C25     3.5108   -0.6671   -5.1013 C.3      1 ZINC000096270381    0.1600
26     C26     2.9081   -0.1431   -6.4062 C.3      1 ZINC000096270381   -0.2000
27     C27     4.9612   -0.2728   -4.9917 C.ar     1 ZINC000096270381   -0.0600
28     C28     5.3870    0.9416   -5.4968 C.ar     1 ZINC000096270381   -0.1100
29     C29     6.7171    1.3038   -5.3966 C.ar     1 ZINC000096270381   -0.0900
30     C30     7.6224    0.4509   -4.7908 C.ar     1 ZINC000096270381   -0.0400
31     Cl31    9.2930    0.9054   -4.6641 Cl       1 ZINC000096270381   -0.0600
32     C32     7.1956   -0.7643   -4.2855 C.ar     1 ZINC000096270381   -0.0900
33     C33     5.8642   -1.1230   -4.3812 C.ar     1 ZINC000096270381   -0.0900
34     N34     3.3627   -2.1290   -5.0058 N.am     1 ZINC000096270381   -0.5700
35     C35     3.8896   -3.0335   -5.8547 C.2      1 ZINC000096270381    0.7300
36     O36     3.6531   -4.2166   -5.7060 O.2      1 ZINC000096270381   -0.5400
37     N37     4.6787   -2.6264   -6.8686 N.am     1 ZINC000096270381   -0.6100
38     C38     4.8618   -1.1954   -7.1549 C.3      1 ZINC000096270381    0.0300
39     C39     6.3639   -0.9044   -7.2401 C.3      1 ZINC000096270381    0.0200
40     N40     6.9818   -1.8163   -8.2121 N.3      1 ZINC000096270381   -0.5400
41     C41     8.3862   -1.4581   -8.4510 C.3      1 ZINC000096270381    0.0700
42     C42     8.8788   -2.1477   -9.7248 C.3      1 ZINC000096270381   -0.1100
43     C43    10.3416   -1.7747   -9.9737 C.3      1 ZINC000096270381   -0.6100
44     S44    10.9256   -2.5924  -11.4840 S.o2     1 ZINC000096270381    2.4200
45     C45    12.6441   -2.0194  -11.5797 C.3      1 ZINC000096270381   -0.6600
46     O46    10.9280   -3.9966  -11.2666 O.2      1 ZINC000096270381   -0.9400
47     O47    10.2096   -2.0629  -12.5913 O.2      1 ZINC000096270381   -0.9400
48     C48     6.8612   -3.2155   -7.7812 C.3      1 ZINC000096270381    0.0400
49     C49     5.3844   -3.6011   -7.7143 C.3      1 ZINC000096270381    0.1400
50     H50    -0.5020   -3.4698   -7.5826 H        1 ZINC000096270381    0.0600
51     H51     1.0272   -4.0724   -8.2658 H        1 ZINC000096270381    0.0600
52     H52    -0.4571   -5.0436   -8.4130 H        1 ZINC000096270381    0.0800
53     H53    -0.5091   -5.3374   -5.9514 H        1 ZINC000096270381    0.0600
54     H54     1.0201   -5.9399   -6.6346 H        1 ZINC000096270381    0.0600
55     H55     0.6340   -6.5447   -4.6717 H        1 ZINC000096270381    0.1300
56     H56     2.7978   -8.6764   -3.4616 H        1 ZINC000096270381    0.0600
57     H57     1.4525   -9.7802   -3.0874 H        1 ZINC000096270381    0.0600
58     H58     1.2625   -8.5422   -4.3522 H        1 ZINC000096270381    0.0600
59     H59     1.3933   -7.4415   -0.2211 H        1 ZINC000096270381    0.0600
60     H60     1.6386   -9.1310   -0.7248 H        1 ZINC000096270381    0.0600
61     H61     2.9028   -7.9171   -1.0357 H        1 ZINC000096270381    0.0600
62     H62    -0.7788   -7.6780   -3.1997 H        1 ZINC000096270381    0.0600
63     H63    -0.5889   -8.9159   -1.9349 H        1 ZINC000096270381    0.0600
64     H64    -0.6979   -7.1964   -1.4880 H        1 ZINC000096270381    0.0600
65     H65     2.5472   -5.9335   -0.9091 H        1 ZINC000096270381    0.1300
66     H66     3.1439   -3.6414   -1.5647 H        1 ZINC000096270381    0.1300
67     H67     0.9652    1.0420   -3.4827 H        1 ZINC000096270381    0.0800
68     H68     1.9547    1.6266   -4.8419 H        1 ZINC000096270381    0.0700
69     H69     0.9271    0.1873   -5.0435 H        1 ZINC000096270381    0.0700
70     H70     3.3136    2.4838   -3.9157 H        1 ZINC000096270381    0.1300
71     H71     4.7855    3.7155   -2.3734 H        1 ZINC000096270381    0.1300
72     H72     5.5685    0.1042   -0.2396 H        1 ZINC000096270381    0.1300
73     H73     4.0913   -1.1245   -1.7791 H        1 ZINC000096270381    0.1300
74     H74     3.4309    0.7640   -6.7095 H        1 ZINC000096270381    0.0900
75     H75     3.0120   -0.8996   -7.1840 H        1 ZINC000096270381    0.0900
76     H76     1.8518    0.0797   -6.2549 H        1 ZINC000096270381    0.0900
77     H77     4.6803    1.6072   -5.9700 H        1 ZINC000096270381    0.1400
78     H78     7.0497    2.2524   -5.7916 H        1 ZINC000096270381    0.1400
79     H79     7.9018   -1.4307   -3.8128 H        1 ZINC000096270381    0.1300
80     H80     5.5309   -2.0714   -3.9866 H        1 ZINC000096270381    0.1200
81     H81     4.3865   -0.9481   -8.1041 H        1 ZINC000096270381    0.0800
82     H82     4.4188   -0.6023   -6.3548 H        1 ZINC000096270381    0.1700
83     H83     6.5172    0.1263   -7.5600 H        1 ZINC000096270381    0.0800
84     H84     6.8194   -1.0533   -6.2611 H        1 ZINC000096270381    0.0600
85     H85     8.4710   -0.3776   -8.5668 H        1 ZINC000096270381    0.0800
86     H86     8.9927   -1.7816   -7.6050 H        1 ZINC000096270381    0.0400
87     H87     8.7940   -3.2283   -9.6091 H        1 ZINC000096270381    0.0800
88     H88     8.2724   -1.8243  -10.5708 H        1 ZINC000096270381    0.0900
89     H89    10.4264   -0.6942  -10.0895 H        1 ZINC000096270381    0.1300
90     H90    10.9481   -2.0982   -9.1277 H        1 ZINC000096270381    0.1300
91     H91    13.1828   -2.3357  -10.6865 H        1 ZINC000096270381    0.1300
92     H92    13.1209   -2.4466  -12.4619 H        1 ZINC000096270381    0.1300
93     H93    12.6612   -0.9317  -11.6483 H        1 ZINC000096270381    0.1300
94     H94     7.3751   -3.8609   -8.4936 H        1 ZINC000096270381    0.0900
95     H95     7.3098   -3.3322   -6.7947 H        1 ZINC000096270381    0.0400
96     H96     5.2854   -4.5987   -7.2866 H        1 ZINC000096270381    0.1000
97     H97     4.9560   -3.5852   -8.7165 H        1 ZINC000096270381    0.0800
@<TRIPOS>BOND
1     1     2     1
2     1     50    1
3     1     51    1
4     1     52    1
5     2     3     1
6     2     53    1
7     2     54    1
8     3     4     1
9     4     13    ar
10    4     5     ar
11    5     6     ar
12    5     55    1
13    6     7     1
14    6     11    ar
15    7     8     1
16    7     9     1
17    7     10    1
18    8     56    1
19    8     57    1
20    8     58    1
21    9     59    1
22    9     60    1
23    9     61    1
24    10    62    1
25    10    63    1
26    10    64    1
27    11    12    ar
28    11    65    1
29    12    13    ar
30    12    66    1
31    13    14    1
32    14    34    1
33    14    15    2
34    15    16    1
35    16    17    1
36    16    18    1
37    16    25    1
38    17    67    1
39    17    68    1
40    17    69    1
41    18    24    ar
42    18    19    ar
43    19    20    ar
44    19    70    1
45    20    21    ar
46    20    71    1
47    21    22    1
48    21    23    ar
49    23    24    ar
50    23    72    1
51    24    73    1
52    25    26    1
53    25    27    1
54    25    34    1
55    26    74    1
56    26    75    1
57    26    76    1
58    27    33    ar
59    27    28    ar
60    28    29    ar
61    28    77    1
62    29    30    ar
63    29    78    1
64    30    31    1
65    30    32    ar
66    32    33    ar
67    32    79    1
68    33    80    1
69    34    35    am
70    35    36    2
71    35    37    am
72    37    49    1
73    37    38    1
74    38    39    1
75    38    81    1
76    38    82    1
77    39    40    1
78    39    83    1
79    39    84    1
80    40    41    1
81    40    48    1
82    41    42    1
83    41    85    1
84    41    86    1
85    42    43    1
86    42    87    1
87    42    88    1
88    43    44    1
89    43    89    1
90    43    90    1
91    44    45    1
92    44    46    2
93    44    47    2
94    45    91    1
95    45    92    1
96    45    93    1
97    48    49    1
98    48    94    1
99    48    95    1
100   49    96    1
101   49    97    1
@<TRIPOS>SUBSTRUCTURE
1   ZINC000096270381 1     RESIDUE    1   A     ZIN   1
