@<TRIPOS>MOLECULE
ZINC000013489171
  63   65    0    0    0
SMALL
USER_CHARGES
NO_NAME
@<TRIPOS>ATOM
    1 C1       -0.0178     1.4608     0.0101 C.3    1 <0>       0.0800
    2 N2        0.0021    -0.0041     0.0020 N.pl3  1 <0>      -0.6300
    3 C3        0.0241    -0.7433     1.2666 C.3    1 <0>       0.1300
    4 C4       -1.4105    -1.0203     1.7205 C.3    1 <0>      -0.1800
    5 C5       -1.3875    -1.7923     3.0413 C.3    1 <0>      -0.0100
    6 N6       -2.7649    -2.0583     3.4771 N.4    1 <0>      -0.3900
    7 H7       -3.2753    -1.1893     3.5278 H      1 <0>       0.4300
    8 C8       -3.4187    -2.9547     2.5143 C.3    1 <0>      -0.0500
    9 C9       -2.7455    -2.6928     4.8018 C.3    1 <0>      -0.0500
   10 C10       0.0000    -0.6948    -1.2096 C.ar   1 <0>       0.2200
   11 C11       0.0131    -2.0853    -1.2159 C.ar   1 <0>      -0.2100
   12 C12       0.0106    -2.7700    -2.4119 C.ar   1 <0>      -0.0300
   13 C13      -0.0050    -2.0672    -3.6166 C.ar   1 <0>      -0.1000
   14 C14      -0.0082    -2.8013    -4.9041 C.ar   1 <0>       0.2200
   15 N15      -0.0015    -4.1356    -4.8921 N.ar   1 <0>      -0.5500
   16 C16      -0.0043    -4.8518    -5.9990 C.ar   1 <0>       0.4500
   17 N17       0.0025    -6.2332    -5.9291 N.pl3  1 <0>      -0.7200
   18 C18       0.0128    -6.9006    -4.6250 C.3    1 <0>       0.1400
   19 C19       0.0187    -8.4170    -4.8282 C.3    1 <0>      -0.1700
   20 C20       0.0295    -9.1140    -3.4663 C.3    1 <0>       0.0000
   21 N21       0.0352   -10.5700    -3.6614 N.4    1 <0>      -0.6400
   22 H22       0.0423   -11.0296    -2.7632 H      1 <0>       0.4400
   23 H23      -0.7902   -10.8440    -4.1729 H      1 <0>       0.4400
   24 H24       0.8574   -10.8363    -4.1820 H      1 <0>       0.4400
   25 C25      -0.0148    -4.2082    -7.2565 C.ar   1 <0>      -0.2000
   26 C26      -0.0186    -4.9292    -8.4592 C.ar   1 <0>      -0.0400
   27 C27      -0.0292    -4.2250    -9.6327 C.ar   1 <0>      -0.1800
   28 C28      -0.0358    -2.8337    -9.6098 C.ar   1 <0>       0.1600
   29 N29      -0.0322    -2.1618    -8.4816 N.ar   1 <0>      -0.4800
   30 C30      -0.0220    -2.7904    -7.3045 C.ar   1 <0>       0.2000
   31 C31      -0.0238    -2.0865    -6.0875 C.ar   1 <0>      -0.1900
   32 C32      -0.0181    -0.6725    -3.6077 C.ar   1 <0>      -0.0400
   33 C33      -0.0209     0.0079    -2.4093 C.ar   1 <0>      -0.1900
   34 H34       1.0048     1.8381     0.0023 H      1 <0>       0.0600
   35 H35      -0.5450     1.8219    -0.8730 H      1 <0>       0.0800
   36 H36      -0.5280     1.8123     0.9069 H      1 <0>       0.0700
   37 H37       0.5496    -1.6879     1.1262 H      1 <0>       0.0900
   38 H38       0.5371    -0.1514     2.0246 H      1 <0>       0.0900
   39 H39      -1.9359    -0.0757     1.8610 H      1 <0>       0.0900
   40 H40      -1.9235    -1.6122     0.9626 H      1 <0>       0.0900
   41 H41      -0.8620    -2.7369     2.9008 H      1 <0>       0.1300
   42 H42      -0.8745    -1.2004     3.7993 H      1 <0>       0.1300
   43 H43      -4.4407    -3.1520     2.8377 H      1 <0>       0.1300
   44 H44      -3.4331    -2.4838     1.5313 H      1 <0>       0.1200
   45 H45      -2.8673    -3.8933     2.4595 H      1 <0>       0.1200
   46 H46      -2.2604    -2.0277     5.5162 H      1 <0>       0.1300
   47 H47      -3.7675    -2.8902     5.1252 H      1 <0>       0.1300
   48 H48      -2.1941    -3.6315     4.7470 H      1 <0>       0.1200
   49 H49       0.0255    -2.6291    -0.2829 H      1 <0>       0.1200
   50 H50       0.0211    -3.8500    -2.4164 H      1 <0>       0.1300
   51 H51       0.0004    -6.7600    -6.7436 H      1 <0>       0.4100
   52 H52       0.9045    -6.6045    -4.0724 H      1 <0>       0.0800
   53 H53      -0.8754    -6.6128    -4.0626 H      1 <0>       0.0800
   54 H54      -0.8730    -8.7130    -5.3808 H      1 <0>       0.1000
   55 H55       0.9070    -8.7047    -5.3907 H      1 <0>       0.1000
   56 H56       0.9212    -8.8180    -2.9137 H      1 <0>       0.1400
   57 H57      -0.8587    -8.8263    -2.9038 H      1 <0>       0.1400
   58 H58      -0.0131    -6.0091    -8.4594 H      1 <0>       0.1300
   59 H59      -0.0321    -4.7493   -10.5769 H      1 <0>       0.1500
   60 H60      -0.0438    -2.2923   -10.5443 H      1 <0>       0.1700
   61 H61      -0.0338    -1.0066    -6.0772 H      1 <0>       0.1500
   62 H62      -0.0302    -0.1263    -4.5393 H      1 <0>       0.1300
   63 H63      -0.0311     1.0878    -2.4020 H      1 <0>       0.1300
@<TRIPOS>BOND
   1    1    2 1
   2    1   34 1
   3    1   35 1
   4    1   36 1
   5    2    3 1
   6    2   10 1
   7    3    4 1
   8    3   37 1
   9    3   38 1
  10    4    5 1
  11    4   39 1
  12    4   40 1
  13    5    6 1
  14    5   41 1
  15    5   42 1
  16    6    7 1
  17    6    8 1
  18    6    9 1
  19    8   43 1
  20    8   44 1
  21    8   45 1
  22    9   46 1
  23    9   47 1
  24    9   48 1
  25   10   33 ar
  26   10   11 ar
  27   11   12 ar
  28   11   49 1
  29   12   13 ar
  30   12   50 1
  31   13   14 1
  32   13   32 ar
  33   14   31 ar
  34   14   15 ar
  35   15   16 ar
  36   16   17 1
  37   16   25 ar
  38   17   18 1
  39   17   51 1
  40   18   19 1
  41   18   52 1
  42   18   53 1
  43   19   20 1
  44   19   54 1
  45   19   55 1
  46   20   21 1
  47   20   56 1
  48   20   57 1
  49   21   22 1
  50   21   23 1
  51   21   24 1
  52   25   30 ar
  53   25   26 ar
  54   26   27 ar
  55   26   58 1
  56   27   28 ar
  57   27   59 1
  58   28   29 ar
  59   28   60 1
  60   29   30 ar
  61   30   31 ar
  62   31   61 1
  63   32   33 ar
  64   32   62 1
  65   33   63 1
