@<TRIPOS>MOLECULE
ZINC000022218988
  32   34    0    0    0
SMALL
USER_CHARGES
NO_NAME
@<TRIPOS>ATOM
    1 O1        0.0021    -0.0041     0.0020 O.co2  1 <0>      -0.6900
    2 C2       -0.0145     1.2150     0.0087 C.2    1 <0>       0.4900
    3 O3        1.0330     1.8389     0.0021 O.co2  1 <0>      -0.6700
    4 C4       -1.3296     1.9507     0.0190 C.3    1 <0>       0.0800
    5 H5       -1.9730     1.5559    -0.7674 H      1 <0>       0.1000
    6 C6       -2.0092     1.7617     1.3767 C.3    1 <0>      -0.0500
    7 C7       -3.3772     2.3931     1.3460 C.2    1 <0>      -0.1500
    8 C8       -3.6941     3.6322     1.7535 C.2    1 <0>       0.0400
    9 N9       -5.0322     3.8546     1.5735 N.pl3  1 <0>      -0.6000
   10 C10      -5.6241     2.7356     1.0320 C.ar   1 <0>       0.1000
   11 C11      -6.9279     2.4278     0.6581 C.ar   1 <0>      -0.1400
   12 C12      -7.2140     1.1872     0.1313 C.ar   1 <0>      -0.1000
   13 C13      -6.2135     0.2391    -0.0307 C.ar   1 <0>      -0.1500
   14 C14      -4.9257     0.5203     0.3300 C.ar   1 <0>      -0.0600
   15 C15      -4.6122     1.7731     0.8598 C.ar   1 <0>      -0.1000
   16 N16      -1.0929     3.3775    -0.2143 N.am   1 <0>      -0.5500
   17 C17      -0.3376     4.1754     0.5620 C.2    1 <0>       0.5400
   18 O18       0.2567     3.8348     1.5643 O.2    1 <0>      -0.4400
   19 C19      -0.3537     5.5384    -0.0135 C.2    1 <0>      -0.1400
   20 C20      -1.1236     5.4865    -1.1130 C.2    1 <0>      -0.1600
   21 C21      -1.5928     4.0890    -1.2406 C.2    1 <0>       0.5400
   22 O22      -2.3130     3.6592    -2.1184 O.2    1 <0>      -0.4800
   23 H23      -2.1050     0.6971     1.5900 H      1 <0>       0.0900
   24 H24      -1.4079     2.2351     2.1529 H      1 <0>       0.0800
   25 H25      -2.9963     4.3475     2.1630 H      1 <0>       0.1600
   26 H26      -5.4948     4.6781     1.7945 H      1 <0>       0.4100
   27 H27      -7.7135     3.1587     0.7806 H      1 <0>       0.1100
   28 H28      -8.2271     0.9500    -0.1581 H      1 <0>       0.1200
   29 H29      -6.4546    -0.7288    -0.4448 H      1 <0>       0.1200
   30 H30      -4.1523    -0.2225     0.2010 H      1 <0>       0.1300
   31 H31       0.1552     6.4078     0.3758 H      1 <0>       0.1700
   32 H32      -1.3526     6.3060    -1.7781 H      1 <0>       0.1700
@<TRIPOS>BOND
   1    1    2 ar
   2    2    3 ar
   3    2    4 1
   4    4    5 1
   5    4    6 1
   6    4   16 1
   7    6    7 1
   8    6   23 1
   9    6   24 1
  10    7   15 1
  11    7    8 2
  12    8    9 1
  13    8   25 1
  14    9   10 1
  15    9   26 1
  16   10   15 ar
  17   10   11 ar
  18   11   12 ar
  19   11   27 1
  20   12   13 ar
  21   12   28 1
  22   13   14 ar
  23   13   29 1
  24   14   15 ar
  25   14   30 1
  26   16   21 am
  27   16   17 am
  28   17   18 2
  29   17   19 1
  30   19   20 2
  31   19   31 1
  32   20   21 1
  33   20   32 1
  34   21   22 2
