@<TRIPOS>MOLECULE
ZINC000005854691
58    60    1     0     0
SMALL
USER_CHARGES
@<TRIPOS>ATOM
1      C1      1.2950    0.2868    0.1140 C.3      1 ZINC000005854691   -0.1200
2      C2      1.4335   -1.2046   -0.0518 C.2      1 ZINC000005854691   -0.1200
3      C3      1.8971   -2.0516    1.1053 C.3      1 ZINC000005854691   -0.1200
4      C4      1.1508   -1.7648   -1.2017 C.2      1 ZINC000005854691   -0.1700
5      C5      0.8110   -0.9081   -2.3940 C.3      1 ZINC000005854691   -0.0500
6      C6      1.7946   -1.1780   -3.5033 C.ar     1 ZINC000005854691   -0.1000
7      C7      1.4464   -2.0114   -4.5483 C.ar     1 ZINC000005854691   -0.0800
8      C8      2.3487   -2.2599   -5.5663 C.ar     1 ZINC000005854691   -0.1000
9      C9      1.9661   -3.1696   -6.7052 C.3      1 ZINC000005854691    0.1500
10     H10     0.8816   -3.1790   -6.8147 H        1 ZINC000005854691    0.0900
11     C11     2.4642   -4.5927   -6.4140 C.3      1 ZINC000005854691   -0.1900
12     C12     2.0832   -5.4545   -7.6043 C.2      1 ZINC000005854691    0.4000
13     O13     1.6703   -6.5874   -7.4656 O.2      1 ZINC000005854691   -0.4300
14     C14     2.2391   -4.8476   -8.9308 C.ar     1 ZINC000005854691   -0.2900
15     C15     2.1604   -5.6329  -10.0914 C.ar     1 ZINC000005854691    0.2200
16     O16     1.9494   -6.9693   -9.9989 O.3      1 ZINC000005854691   -0.4800
17     C17     2.2991   -5.0333  -11.3307 C.ar     1 ZINC000005854691   -0.2200
18     C18     2.5173   -3.6643  -11.4209 C.ar     1 ZINC000005854691    0.2000
19     O19     2.6487   -3.0843  -12.6403 O.3      1 ZINC000005854691   -0.4900
20     C20     2.6019   -2.8829  -10.2753 C.ar     1 ZINC000005854691   -0.1500
21     C21     2.8405   -1.3996  -10.3937 C.3      1 ZINC000005854691   -0.0400
22     C22     1.5175   -0.6834  -10.4809 C.2      1 ZINC000005854691   -0.1700
23     C23     1.2035    0.2233   -9.5890 C.2      1 ZINC000005854691   -0.1200
24     C24     2.1494    0.5241   -8.4551 C.3      1 ZINC000005854691   -0.1300
25     C25    -0.1036    0.9655   -9.6969 C.3      1 ZINC000005854691   -0.1200
26     C26     2.4678   -3.4621   -9.0262 C.ar     1 ZINC000005854691    0.2200
27     O27     2.5626   -2.6974   -7.9130 O.3      1 ZINC000005854691   -0.2900
28     C28     3.6010   -1.6749   -5.5412 C.ar     1 ZINC000005854691   -0.0800
29     C29     3.9541   -0.8401   -4.4984 C.ar     1 ZINC000005854691   -0.1400
30     C30     3.0489   -0.5851   -3.4787 C.ar     1 ZINC000005854691    0.1200
31     O31     3.3937    0.2356   -2.4519 O.3      1 ZINC000005854691   -0.4900
32     H32     1.4845    0.5560    1.1531 H        1 ZINC000005854691    0.0600
33     H33     2.0150    0.7923   -0.5294 H        1 ZINC000005854691    0.0700
34     H34     0.2852    0.5908   -0.1617 H        1 ZINC000005854691    0.0600
35     H35     2.0823   -1.4148    1.9703 H        1 ZINC000005854691    0.0600
36     H36     1.1277   -2.7835    1.3510 H        1 ZINC000005854691    0.0600
37     H37     2.8165   -2.5689    0.8314 H        1 ZINC000005854691    0.0700
38     H38     1.1614   -2.8407   -1.2953 H        1 ZINC000005854691    0.1100
39     H39    -0.1965   -1.1448   -2.7361 H        1 ZINC000005854691    0.0800
40     H40     0.8612    0.1436   -2.1118 H        1 ZINC000005854691    0.0800
41     H41     0.4686   -2.4696   -4.5702 H        1 ZINC000005854691    0.1300
42     H42     3.5471   -4.5888   -6.2901 H        1 ZINC000005854691    0.1200
43     H43     1.9878   -4.9752   -5.5113 H        1 ZINC000005854691    0.1100
44     H44     1.0159   -7.2215  -10.0045 H        1 ZINC000005854691    0.4000
45     H45     2.2381   -5.6302  -12.2287 H        1 ZINC000005854691    0.1500
46     H46     1.8146   -2.7791  -13.0226 H        1 ZINC000005854691    0.4000
47     H47     3.3868   -1.0484   -9.5183 H        1 ZINC000005854691    0.0900
48     H48     3.4238   -1.1960  -11.2917 H        1 ZINC000005854691    0.0900
49     H49     0.8282   -0.9175  -11.2787 H        1 ZINC000005854691    0.1000
50     H50     2.8978    1.2435   -8.7874 H        1 ZINC000005854691    0.0600
51     H51     1.5910    0.9416   -7.6172 H        1 ZINC000005854691    0.0600
52     H52     2.6434   -0.3951   -8.1404 H        1 ZINC000005854691    0.0800
53     H53    -0.9294    0.2554   -9.6526 H        1 ZINC000005854691    0.0600
54     H54    -0.1886    1.6735   -8.8726 H        1 ZINC000005854691    0.0600
55     H55    -0.1384    1.5044  -10.6438 H        1 ZINC000005854691    0.0700
56     H56     4.3041   -1.8708   -6.3373 H        1 ZINC000005854691    0.1300
57     H57     4.9327   -0.3837   -4.4790 H        1 ZINC000005854691    0.1300
58     H58     3.1823    1.1668   -2.6046 H        1 ZINC000005854691    0.3900
@<TRIPOS>BOND
1     1     2     1
2     1     32    1
3     1     33    1
4     1     34    1
5     2     3     1
6     2     4     2
7     3     35    1
8     3     36    1
9     3     37    1
10    4     5     1
11    4     38    1
12    5     6     1
13    5     39    1
14    5     40    1
15    6     30    ar
16    6     7     ar
17    7     8     ar
18    7     41    1
19    8     9     1
20    8     28    ar
21    9     10    1
22    9     27    1
23    9     11    1
24    11    12    1
25    11    42    1
26    11    43    1
27    12    13    2
28    12    14    1
29    14    26    ar
30    14    15    ar
31    15    16    1
32    15    17    ar
33    16    44    1
34    17    18    ar
35    17    45    1
36    18    19    1
37    18    20    ar
38    19    46    1
39    20    21    1
40    20    26    ar
41    21    22    1
42    21    47    1
43    21    48    1
44    22    23    2
45    22    49    1
46    23    24    1
47    23    25    1
48    24    50    1
49    24    51    1
50    24    52    1
51    25    53    1
52    25    54    1
53    25    55    1
54    26    27    1
55    28    29    ar
56    28    56    1
57    29    30    ar
58    29    57    1
59    30    31    1
60    31    58    1
@<TRIPOS>SUBSTRUCTURE
1   ZINC000005854691 1     RESIDUE    1   A     ZIN   1
