@<TRIPOS>MOLECULE
ZINC000096908708
85    90    1     0     0
SMALL
USER_CHARGES
@<TRIPOS>ATOM
1      C1      0.2317    1.6716    1.3423 C.3      1 ZINC000096908708   -0.1500
2      C2      0.2361    0.2453    0.7887 C.3      1 ZINC000096908708   -0.0800
3      C3      1.1218   -0.6402    1.6675 C.3      1 ZINC000096908708   -0.1600
4      C4     -1.1701   -0.2967    0.7854 C.2      1 ZINC000096908708    0.2500
5      C5     -1.6703   -0.8935   -0.3050 C.2      1 ZINC000096908708   -0.3100
6      C6     -0.9941   -1.1093   -1.5870 C.2      1 ZINC000096908708    0.6400
7      O7      0.1045   -0.6242   -1.7849 O.2      1 ZINC000096908708   -0.5100
8      N8     -1.5888   -1.8450   -2.5470 N.am     1 ZINC000096908708   -0.6000
9      C9     -2.8584   -2.5729   -2.4058 C.3      1 ZINC000096908708    0.1200
10     H10    -3.6584   -1.8771   -2.1530 H        1 ZINC000096908708    0.0800
11     C11    -2.7296   -3.6365   -1.3135 C.3      1 ZINC000096908708   -0.1800
12     C12    -3.1556   -3.2435   -3.7635 C.3      1 ZINC000096908708   -0.1200
13     C13    -2.3257   -2.3923   -4.7606 C.3      1 ZINC000096908708   -0.1200
14     C14    -1.0772   -2.0480   -3.9147 C.3      1 ZINC000096908708    0.1200
15     H15    -0.3685   -2.8760   -3.9299 H        1 ZINC000096908708    0.1000
16     C16    -0.4248   -0.7911   -4.4300 C.2      1 ZINC000096908708    0.5200
17     O17    -0.7644    0.2898   -3.9971 O.2      1 ZINC000096908708   -0.5100
18     N18     0.5360   -0.8680   -5.3721 N.am     1 ZINC000096908708   -0.6100
19     C19     0.8808   -2.1548   -5.9953 C.3      1 ZINC000096908708    0.1100
20     C20     0.8490   -1.9825   -7.5176 C.3      1 ZINC000096908708    0.0400
21     N21     1.7129   -0.8569   -7.8979 N.3      1 ZINC000096908708   -0.5400
22     C22     1.8461   -0.7654   -9.3580 C.3      1 ZINC000096908708    0.0200
23     C23     1.2205    0.4070   -7.3340 C.3      1 ZINC000096908708    0.0700
24     H24     0.1935    0.5745   -7.6586 H        1 ZINC000096908708    0.0400
25     C25     2.1029    1.5598   -7.8170 C.3      1 ZINC000096908708   -0.1500
26     C26     1.2633    0.3336   -5.8085 C.3      1 ZINC000096908708    0.1300
27     S27    -3.3206   -1.3675    0.1301 S.3      1 ZINC000096908708    0.1500
28     C28    -3.2181   -0.7158    1.7814 C.2      1 ZINC000096908708    0.2800
29     N29    -3.9486   -0.5990    2.8568 N.2      1 ZINC000096908708   -0.5000
30     C30    -3.1915    0.0825    3.9105 C.3      1 ZINC000096908708    0.1400
31     C31    -3.8817    1.3892    4.3068 C.3      1 ZINC000096908708   -0.1300
32     C32    -3.0328   -0.8145    5.1110 C.ar     1 ZINC000096908708   -0.0600
33     C33    -2.5507   -0.2991    6.2997 C.ar     1 ZINC000096908708   -0.0900
34     C34    -2.4049   -1.1213    7.4011 C.ar     1 ZINC000096908708   -0.1100
35     C35    -2.7416   -2.4604    7.3138 C.ar     1 ZINC000096908708   -0.0300
36     Cl36   -2.5593   -3.4935    8.6969 Cl       1 ZINC000096908708   -0.0700
37     C37    -3.2240   -2.9756    6.1239 C.ar     1 ZINC000096908708   -0.1100
38     C38    -3.3747   -2.1512    5.0248 C.ar     1 ZINC000096908708   -0.0800
39     C39    -1.8266    0.3688    3.2642 C.3      1 ZINC000096908708    0.1700
40     H40    -1.6397    1.4418    3.2240 H        1 ZINC000096908708    0.1200
41     C41    -0.7262   -0.3307    4.0198 C.ar     1 ZINC000096908708   -0.0900
42     C42    -0.5791   -1.7012    3.9149 C.ar     1 ZINC000096908708   -0.0700
43     C43     0.4299   -2.3433    4.6077 C.ar     1 ZINC000096908708   -0.1000
44     C44     1.2930   -1.6140    5.4061 C.ar     1 ZINC000096908708   -0.0200
45     Cl45    2.5610   -2.4197    6.2761 Cl       1 ZINC000096908708   -0.0600
46     C46     1.1453   -0.2424    5.5106 C.ar     1 ZINC000096908708   -0.1000
47     C47     0.1393    0.3992    4.8130 C.ar     1 ZINC000096908708   -0.0900
48     N48    -1.9575   -0.1948    1.8938 N.pl3    1 ZINC000096908708   -0.5500
49     H49     1.2487    2.0635    1.3447 H        1 ZINC000096908708    0.0700
50     H50    -0.3994    2.3024    0.7163 H        1 ZINC000096908708    0.0600
51     H51    -0.1575    1.6649    2.3605 H        1 ZINC000096908708    0.0500
52     H52     0.6253    0.2519   -0.2294 H        1 ZINC000096908708    0.1400
53     H53     0.8330   -0.5206    2.7117 H        1 ZINC000096908708    0.0700
54     H54     0.9990   -1.6826    1.3736 H        1 ZINC000096908708    0.0500
55     H55     2.1646   -0.3482    1.5433 H        1 ZINC000096908708    0.0600
56     H56    -2.4190   -3.1644   -0.3815 H        1 ZINC000096908708    0.0800
57     H57    -3.6921   -4.1274   -1.1691 H        1 ZINC000096908708    0.0800
58     H58    -1.9860   -4.3756   -1.6119 H        1 ZINC000096908708    0.0700
59     H59    -2.8157   -4.2792   -3.7647 H        1 ZINC000096908708    0.0900
60     H60    -4.2184   -3.1850   -3.9981 H        1 ZINC000096908708    0.0900
61     H61    -2.0548   -2.9753   -5.6408 H        1 ZINC000096908708    0.0900
62     H62    -2.8634   -1.4874   -5.0436 H        1 ZINC000096908708    0.0900
63     H63     1.8800   -2.4574   -5.6818 H        1 ZINC000096908708    0.0800
64     H64     0.1556   -2.9120   -5.6973 H        1 ZINC000096908708    0.0900
65     H65     1.2086   -2.8943   -7.9945 H        1 ZINC000096908708    0.0900
66     H66    -0.1728   -1.7818   -7.8396 H        1 ZINC000096908708    0.0400
67     H67     0.8733   -0.5475   -9.7986 H        1 ZINC000096908708    0.0300
68     H68     2.5458    0.0316   -9.6098 H        1 ZINC000096908708    0.0800
69     H69     2.2182   -1.7124   -9.7489 H        1 ZINC000096908708    0.0700
70     H70     2.0707    1.6107   -8.9053 H        1 ZINC000096908708    0.0600
71     H71     1.7373    2.4974   -7.3983 H        1 ZINC000096908708    0.0600
72     H72     3.1296    1.3925   -7.4914 H        1 ZINC000096908708    0.0700
73     H73     0.7933    1.2216   -5.3858 H        1 ZINC000096908708    0.1000
74     H74     2.2987    0.2694   -5.4739 H        1 ZINC000096908708    0.0800
75     H75    -4.8750    1.1710    4.6990 H        1 ZINC000096908708    0.0800
76     H76    -3.2918    1.8941    5.0719 H        1 ZINC000096908708    0.0700
77     H77    -3.9698    2.0334    3.4320 H        1 ZINC000096908708    0.0600
78     H78    -2.2876    0.7462    6.3676 H        1 ZINC000096908708    0.1300
79     H79    -2.0279   -0.7186    8.3296 H        1 ZINC000096908708    0.1300
80     H80    -3.4867   -4.0209    6.0550 H        1 ZINC000096908708    0.1300
81     H81    -3.7516   -2.5533    4.0960 H        1 ZINC000096908708    0.1300
82     H82    -1.2531   -2.2705    3.2919 H        1 ZINC000096908708    0.1200
83     H83     0.5445   -3.4141    4.5260 H        1 ZINC000096908708    0.1300
84     H84     1.8185    0.3274    6.1340 H        1 ZINC000096908708    0.1400
85     H85     0.0242    1.4700    4.8942 H        1 ZINC000096908708    0.1300
@<TRIPOS>BOND
1     1     2     1
2     1     49    1
3     1     50    1
4     1     51    1
5     2     3     1
6     2     4     1
7     2     52    1
8     3     53    1
9     3     54    1
10    3     55    1
11    4     48    1
12    4     5     2
13    5     6     1
14    5     27    1
15    6     7     2
16    6     8     am
17    8     14    1
18    8     9     1
19    9     10    1
20    9     11    1
21    9     12    1
22    11    56    1
23    11    57    1
24    11    58    1
25    12    13    1
26    12    59    1
27    12    60    1
28    13    14    1
29    13    61    1
30    13    62    1
31    14    15    1
32    14    16    1
33    16    17    2
34    16    18    am
35    18    26    1
36    18    19    1
37    19    20    1
38    19    63    1
39    19    64    1
40    20    21    1
41    20    65    1
42    20    66    1
43    21    22    1
44    21    23    1
45    22    67    1
46    22    68    1
47    22    69    1
48    23    24    1
49    23    25    1
50    23    26    1
51    25    70    1
52    25    71    1
53    25    72    1
54    26    73    1
55    26    74    1
56    27    28    1
57    28    48    1
58    28    29    2
59    29    30    1
60    30    31    1
61    30    32    1
62    30    39    1
63    31    75    1
64    31    76    1
65    31    77    1
66    32    38    ar
67    32    33    ar
68    33    34    ar
69    33    78    1
70    34    35    ar
71    34    79    1
72    35    36    1
73    35    37    ar
74    37    38    ar
75    37    80    1
76    38    81    1
77    39    40    1
78    39    41    1
79    39    48    1
80    41    47    ar
81    41    42    ar
82    42    43    ar
83    42    82    1
84    43    44    ar
85    43    83    1
86    44    45    1
87    44    46    ar
88    46    47    ar
89    46    84    1
90    47    85    1
@<TRIPOS>SUBSTRUCTURE
1   ZINC000096908708 1     RESIDUE    1   A     ZIN   1
