@<TRIPOS>MOLECULE
ZINC000003938686
  63   67    0    0    0
SMALL
USER_CHARGES
NO_NAME
@<TRIPOS>ATOM
    1 C1       -0.2127     0.8134     0.4086 C.3    1 <0>      -0.1900
    2 C2        0.6510    -0.3151    -0.0928 C.2    1 <0>       0.4300
    3 O3        1.6576    -0.6234     0.5112 O.2    1 <0>      -0.4400
    4 C4        0.2763    -1.0389    -1.3076 C.2    1 <0>      -0.2800
    5 C5       -0.0812    -2.3817    -1.2460 C.2    1 <0>       0.0800
    6 C6       -0.0894    -3.1136     0.0714 C.3    1 <0>      -0.1400
    7 C7       -0.4358    -3.0450    -2.4363 C.ar   1 <0>      -0.2700
    8 C8       -0.8057    -4.4013    -2.4301 C.ar   1 <0>       0.2600
    9 N9       -1.1287    -4.9722    -3.5741 N.ar   1 <0>      -0.5200
   10 C10      -1.1083    -4.2890    -4.7142 C.ar   1 <0>       0.6000
   11 N11      -1.4561    -4.9359    -5.8823 N.pl3  1 <0>      -0.6100
   12 C12      -1.7148    -6.3065    -5.8700 C.ar   1 <0>       0.3400
   13 C13      -1.9583    -6.9705    -7.0668 C.ar   1 <0>      -0.1600
   14 C14      -2.2133    -8.3299    -7.0440 C.ar   1 <0>      -0.1100
   15 C15      -2.2160    -8.9842    -5.8135 C.ar   1 <0>       0.1100
   16 N16      -2.4688   -10.3591    -5.7425 N.pl3  1 <0>      -0.6400
   17 C17      -2.6056   -11.1671    -6.9642 C.3    1 <0>       0.1000
   18 C18      -1.6921   -12.3911    -6.8418 C.3    1 <0>      -0.0200
   19 N19      -2.0040   -13.1113    -5.6008 N.4    1 <0>      -0.5000
   20 H20      -2.9848   -13.3481    -5.5882 H      1 <0>       0.4300
   21 H21      -1.4547   -13.9565    -5.5567 H      1 <0>       0.4300
   22 C22      -1.6911   -12.2673    -4.4407 C.3    1 <0>      -0.0200
   23 C23      -2.5990   -11.0382    -4.4440 C.3    1 <0>       0.1000
   24 C24      -1.9645    -8.2558    -4.6598 C.ar   1 <0>       0.0800
   25 N25      -1.7201    -6.9609    -4.7196 N.ar   1 <0>      -0.4200
   26 N26      -0.7671    -3.0103    -4.7711 N.ar   1 <0>      -0.5900
   27 C27      -0.4265    -2.3523    -3.6691 C.ar   1 <0>       0.4700
   28 N28      -0.0731    -1.0286    -3.7235 N.am   1 <0>      -0.5000
   29 C29      -0.0716    -0.3340    -5.0134 C.3    1 <0>       0.1200
   30 C30      -1.1616     0.7576    -5.0271 C.3    1 <0>      -0.1300
   31 C31      -0.4074     2.0524    -4.6351 C.3    1 <0>      -0.1400
   32 C32       0.9527     1.8878    -5.3576 C.3    1 <0>      -0.1100
   33 C33       1.2727     0.3846    -5.2235 C.3    1 <0>      -0.1300
   34 C34       0.2667    -0.3564    -2.6073 C.2    1 <0>       0.5600
   35 O35       0.5768     0.8187    -2.6776 O.2    1 <0>      -0.4900
   36 H36       0.1756     1.7614     0.0362 H      1 <0>       0.1100
   37 H37      -1.2340     0.6746     0.0538 H      1 <0>       0.0800
   38 H38      -0.2046     0.8206     1.4986 H      1 <0>       0.0900
   39 H39       0.1232    -2.4120     0.8781 H      1 <0>       0.0800
   40 H40      -1.0691    -3.5642     0.2306 H      1 <0>       0.0900
   41 H41       0.6716    -3.8938     0.0583 H      1 <0>       0.0900
   42 H42      -0.8245    -4.9636    -1.5083 H      1 <0>       0.1900
   43 H43      -1.5207    -4.4376    -6.7120 H      1 <0>       0.4400
   44 H44      -1.9488    -6.4316    -8.0027 H      1 <0>       0.1400
   45 H45      -2.4062    -8.8714    -7.9583 H      1 <0>       0.1400
   46 H46      -3.6403   -11.4917    -7.0746 H      1 <0>       0.0900
   47 H47      -2.3101   -10.5747    -7.8301 H      1 <0>       0.1200
   48 H48      -1.8520   -13.0507    -7.6948 H      1 <0>       0.1400
   49 H49      -0.6514   -12.0675    -6.8225 H      1 <0>       0.1300
   50 H50      -1.8503   -12.8357    -3.5243 H      1 <0>       0.1500
   51 H51      -0.6505   -11.9475    -4.4940 H      1 <0>       0.1300
   52 H52      -2.3016   -10.3610    -3.6433 H      1 <0>       0.1300
   53 H53      -3.6344   -11.3471    -4.3007 H      1 <0>       0.0900
   54 H54      -1.9651    -8.7554    -3.7023 H      1 <0>       0.1600
   55 H55      -0.2447    -1.0457    -5.8206 H      1 <0>       0.1200
   56 H56      -1.5925     0.8539    -6.0236 H      1 <0>       0.0800
   57 H57      -1.9371     0.5314    -4.2953 H      1 <0>       0.0600
   58 H58      -0.9353     2.9329    -5.0015 H      1 <0>       0.0600
   59 H59      -0.2674     2.1061    -3.5555 H      1 <0>       0.1100
   60 H60       0.8633     2.1666    -6.4075 H      1 <0>       0.0600
   61 H61       1.7202     2.4864    -4.8669 H      1 <0>       0.0700
   62 H62       1.9240     0.2165    -4.3658 H      1 <0>       0.0700
   63 H63       1.7516     0.0223    -6.1332 H      1 <0>       0.0700
@<TRIPOS>BOND
   1    1    2 1
   2    1   36 1
   3    1   37 1
   4    1   38 1
   5    2    3 2
   6    2    4 1
   7    4   34 1
   8    4    5 2
   9    5    6 1
  10    5    7 1
  11    6   39 1
  12    6   40 1
  13    6   41 1
  14    7   27 ar
  15    7    8 ar
  16    8    9 ar
  17    8   42 1
  18    9   10 ar
  19   10   11 1
  20   10   26 ar
  21   11   12 1
  22   11   43 1
  23   12   25 ar
  24   12   13 ar
  25   13   14 ar
  26   13   44 1
  27   14   15 ar
  28   14   45 1
  29   15   16 1
  30   15   24 ar
  31   16   23 1
  32   16   17 1
  33   17   18 1
  34   17   46 1
  35   17   47 1
  36   18   19 1
  37   18   48 1
  38   18   49 1
  39   19   20 1
  40   19   21 1
  41   19   22 1
  42   22   23 1
  43   22   50 1
  44   22   51 1
  45   23   52 1
  46   23   53 1
  47   24   25 ar
  48   24   54 1
  49   26   27 ar
  50   27   28 1
  51   28   29 1
  52   28   34 am
  53   29   33 1
  54   29   30 1
  55   29   55 1
  56   30   31 1
  57   30   56 1
  58   30   57 1
  59   31   32 1
  60   31   58 1
  61   31   59 1
  62   32   33 1
  63   32   60 1
  64   32   61 1
  65   33   62 1
  66   33   63 1
  67   34   35 2
