@<TRIPOS>MOLECULE
ZINC000145217152
64    68    1     0     0
SMALL
USER_CHARGES
@<TRIPOS>ATOM
1      C1      2.5553    1.7399    1.1764 C.3      1 ZINC000145217152    0.0400
2      O2      2.6606    0.2933    1.2424 O.3      1 ZINC000145217152   -0.3600
3      C3      1.6678   -0.4190    0.6743 C.2      1 ZINC000145217152    0.5100
4      O4      0.7395    0.1532    0.1384 O.2      1 ZINC000145217152   -0.5100
5      C5      1.7079   -1.8927    0.7030 C.ar     1 ZINC000145217152   -0.1500
6      C6      2.7725   -2.5527    1.3243 C.ar     1 ZINC000145217152   -0.0400
7      C7      2.8065   -3.9283    1.3496 C.ar     1 ZINC000145217152   -0.1400
8      C8      1.7829   -4.6624    0.7577 C.ar     1 ZINC000145217152    0.1900
9      N9      1.8206   -6.0548    0.7852 N.am     1 ZINC000145217152   -0.6700
10     C10     2.3621   -6.6936    1.8413 C.2      1 ZINC000145217152    0.5600
11     O11     2.7339   -6.0598    2.8096 O.2      1 ZINC000145217152   -0.5000
12     C12     2.5039   -8.1649    1.8220 C.ar     1 ZINC000145217152   -0.1400
13     C13     2.0827   -8.8942    0.7082 C.ar     1 ZINC000145217152   -0.0700
14     C14     2.2149  -10.2683    0.6898 C.ar     1 ZINC000145217152   -0.1200
15     C15     2.7641  -10.9296    1.7708 C.ar     1 ZINC000145217152   -0.0700
16     C16     3.1891  -10.2124    2.8892 C.ar     1 ZINC000145217152   -0.0400
17     C17     3.7788  -10.9255    4.0490 C.2      1 ZINC000145217152    0.1700
18     C18     3.9050  -12.2780    4.0081 C.2      1 ZINC000145217152   -0.0500
19     N19     4.4479  -12.9437    5.0738 N.pl3    1 ZINC000145217152   -0.3300
20     C20     4.7008  -14.2564    5.3297 C.2      1 ZINC000145217152   -0.0600
21     C21     5.2541  -14.3225    6.5640 C.2      1 ZINC000145217152    0.0300
22     N22     5.3408  -13.0864    7.0571 N.2      1 ZINC000145217152   -0.4600
23     C23     4.8583  -12.2316    6.1722 C.2      1 ZINC000145217152    0.1400
24     C24     4.7074  -10.8210    6.1704 C.2      1 ZINC000145217152    0.4900
25     N25     5.1134  -10.0761    7.2665 N.pl3    1 ZINC000145217152   -0.6300
26     C26     4.8631   -8.6997    7.3086 C.ar     1 ZINC000145217152    0.1500
27     C27     3.7091   -8.1860    6.7326 C.ar     1 ZINC000145217152   -0.1100
28     C28     3.4602   -6.8269    6.7738 C.ar     1 ZINC000145217152   -0.1500
29     C29     4.3617   -5.9746    7.3899 C.ar     1 ZINC000145217152    0.0900
30     O30     4.1150   -4.6370    7.4300 O.3      1 ZINC000145217152   -0.3100
31     C31     2.9074   -4.1813    6.8168 C.3      1 ZINC000145217152    0.0300
32     C32     5.5196   -6.4864    7.9684 C.ar     1 ZINC000145217152    0.1200
33     O33     6.4051   -5.6503    8.5735 O.3      1 ZINC000145217152   -0.3000
34     C34     7.5717   -6.2447    9.1459 C.3      1 ZINC000145217152    0.0300
35     C35     5.7664   -7.8484    7.9318 C.ar     1 ZINC000145217152   -0.2000
36     N36     4.1844  -10.2223    5.1208 N.2      1 ZINC000145217152   -0.5300
37     C37     3.0637   -8.8274    2.9134 C.ar     1 ZINC000145217152   -0.0100
38     C38     0.7215   -4.0087    0.1388 C.ar     1 ZINC000145217152   -0.1600
39     C39     0.6786   -2.6332    0.1140 C.ar     1 ZINC000145217152   -0.0300
40     H40     1.6415    2.0609    1.6763 H        1 ZINC000145217152    0.0600
41     H41     3.4167    2.1899    1.6700 H        1 ZINC000145217152    0.1000
42     H42     2.5287    2.0551    0.1333 H        1 ZINC000145217152    0.0600
43     H43     3.5673   -1.9836    1.7835 H        1 ZINC000145217152    0.1400
44     H44     3.6287   -4.4388    1.8291 H        1 ZINC000145217152    0.1500
45     H45     1.4571   -6.5646    0.0443 H        1 ZINC000145217152    0.4100
46     H46     1.6524   -8.3825   -0.1401 H        1 ZINC000145217152    0.1300
47     H47     1.8872  -10.8286   -0.1734 H        1 ZINC000145217152    0.1400
48     H48     2.8645  -12.0047    1.7503 H        1 ZINC000145217152    0.1300
49     H49     3.5774  -12.8262    3.1372 H        1 ZINC000145217152    0.1700
50     H50     4.4978  -15.0888    4.6722 H        1 ZINC000145217152    0.1900
51     H51     5.5716  -15.2250    7.0652 H        1 ZINC000145217152    0.1900
52     H52     5.5709  -10.5086    8.0044 H        1 ZINC000145217152    0.4300
53     H53     3.0052   -8.8489    6.2514 H        1 ZINC000145217152    0.1400
54     H54     2.5622   -6.4290    6.3248 H        1 ZINC000145217152    0.1400
55     H55     2.9143   -4.4463    5.7595 H        1 ZINC000145217152    0.0600
56     H56     2.0529   -4.6514    7.3036 H        1 ZINC000145217152    0.0500
57     H57     2.8337   -3.0987    6.9196 H        1 ZINC000145217152    0.1000
58     H58     8.1918   -5.4689    9.5948 H        1 ZINC000145217152    0.1000
59     H59     7.2757   -6.9617    9.9116 H        1 ZINC000145217152    0.0600
60     H60     8.1375   -6.7571    8.3677 H        1 ZINC000145217152    0.0500
61     H61     6.6642   -8.2473    8.3804 H        1 ZINC000145217152    0.1400
62     H62     3.3915   -8.2683    3.7773 H        1 ZINC000145217152    0.1500
63     H63    -0.0713   -4.5814   -0.3193 H        1 ZINC000145217152    0.1400
64     H64    -0.1455   -2.1266   -0.3662 H        1 ZINC000145217152    0.1400
@<TRIPOS>BOND
1     1     2     1
2     1     40    1
3     1     41    1
4     1     42    1
5     2     3     1
6     3     4     2
7     3     5     1
8     5     39    ar
9     5     6     ar
10    6     7     ar
11    6     43    1
12    7     8     ar
13    7     44    1
14    8     9     1
15    8     38    ar
16    9     10    am
17    9     45    1
18    10    11    2
19    10    12    1
20    12    37    ar
21    12    13    ar
22    13    14    ar
23    13    46    1
24    14    15    ar
25    14    47    1
26    15    16    ar
27    15    48    1
28    16    17    1
29    16    37    ar
30    17    36    1
31    17    18    2
32    18    19    1
33    18    49    1
34    19    23    1
35    19    20    1
36    20    21    2
37    20    50    1
38    21    22    1
39    21    51    1
40    22    23    2
41    23    24    1
42    24    25    1
43    24    36    2
44    25    26    1
45    25    52    1
46    26    35    ar
47    26    27    ar
48    27    28    ar
49    27    53    1
50    28    29    ar
51    28    54    1
52    29    30    1
53    29    32    ar
54    30    31    1
55    31    55    1
56    31    56    1
57    31    57    1
58    32    33    1
59    32    35    ar
60    33    34    1
61    34    58    1
62    34    59    1
63    34    60    1
64    35    61    1
65    37    62    1
66    38    39    ar
67    38    63    1
68    39    64    1
@<TRIPOS>SUBSTRUCTURE
1   ZINC000145217152 1     RESIDUE    1   A     ZIN   1
