@<TRIPOS>MOLECULE
ZINC000045336414
  32   33    0    0    0
SMALL
USER_CHARGES
NO_NAME
@<TRIPOS>ATOM
    1 C1       -0.0176     1.4478     0.0100 C.3    1 <0>       0.0600
    2 O2        0.0021    -0.0041     0.0020 O.3    1 <0>      -0.3700
    3 C3        0.6200    -0.6127     1.0318 C.2    1 <0>       0.6500
    4 O4        1.1289     0.0513     1.9131 O.2    1 <0>      -0.5700
    5 N5        0.6741    -1.9583     1.0852 N.am   1 <0>      -0.7100
    6 C6        1.3465    -2.6205     2.2057 C.3    1 <0>       0.1400
    7 C7        1.2652    -4.1376     2.0247 C.3    1 <0>      -0.0700
    8 C8        1.9569    -4.8188     3.1774 C.2    1 <0>       0.1200
    9 C9        1.4144    -5.1217     4.3853 C.2    1 <0>      -0.2600
   10 C10       2.5119    -5.7761     5.1387 C.2    1 <0>       0.0000
   11 N11       3.5340    -5.7929     4.3445 N.2    1 <0>      -0.2000
   12 N12       3.2398    -5.2541     3.2092 N.pl3  1 <0>      -0.3900
   13 C13       2.2662    -6.2435     6.5179 C.2    1 <0>       0.4700
   14 O14       3.1718    -6.6262     7.2332 O.2    1 <0>      -0.4000
   15 C15       0.8606    -6.2221     6.9865 C.2    1 <0>      -0.1000
   16 C16       0.5276    -6.8964     8.2924 C.3    1 <0>      -0.1200
   17 C17      -0.1254    -5.6317     6.3040 C.2    1 <0>      -0.1400
   18 C18       0.0959    -4.9415     5.0094 C.2    1 <0>       0.4600
   19 O19      -0.7689    -4.2615     4.4915 O.2    1 <0>      -0.4300
   20 H20       1.0050     1.8251     0.0023 H      1 <0>       0.0600
   21 H21      -0.5448     1.8089    -0.8731 H      1 <0>       0.1100
   22 H22      -0.5278     1.7993     0.9068 H      1 <0>       0.0700
   23 H23       0.2679    -2.4883     0.3816 H      1 <0>       0.4100
   24 H24       2.3920    -2.3136     2.2348 H      1 <0>       0.0700
   25 H25       0.8592    -2.3393     3.1393 H      1 <0>       0.0800
   26 H26       0.2197    -4.4445     1.9957 H      1 <0>       0.1100
   27 H27       1.7525    -4.4187     1.0911 H      1 <0>       0.1000
   28 H28       3.8631    -5.1650     2.4714 H      1 <0>       0.4500
   29 H29       0.6273    -6.1794     9.1073 H      1 <0>       0.0900
   30 H30      -0.4966    -7.2679     8.2587 H      1 <0>       0.0800
   31 H31       1.2111    -7.7295     8.4558 H      1 <0>       0.0800
   32 H32      -1.1251    -5.6585     6.7117 H      1 <0>       0.1600
@<TRIPOS>BOND
   1    1    2 1
   2    1   20 1
   3    1   21 1
   4    1   22 1
   5    2    3 1
   6    3    4 2
   7    3    5 am
   8    5    6 1
   9    5   23 1
  10    6    7 1
  11    6   24 1
  12    6   25 1
  13    7    8 1
  14    7   26 1
  15    7   27 1
  16    8   12 1
  17    8    9 2
  18    9   18 1
  19    9   10 1
  20   10   11 2
  21   10   13 1
  22   11   12 1
  23   12   28 1
  24   13   14 2
  25   13   15 1
  26   15   16 1
  27   15   17 2
  28   16   29 1
  29   16   30 1
  30   16   31 1
  31   17   18 1
  32   17   32 1
  33   18   19 2
