@<TRIPOS>MOLECULE
ZINC000019291861
  46   48    0    0    0
SMALL
USER_CHARGES
NO_NAME
@<TRIPOS>ATOM
    1 O1       -0.0164     1.3556     0.0095 O.3    1 <0>      -0.4900
    2 C2        0.0021    -0.0041     0.0020 C.ar   1 <0>       0.1100
    3 C3        0.0057    -0.6909    -1.2029 C.ar   1 <0>      -0.1100
    4 C4        0.0245    -2.0721    -1.2105 C.ar   1 <0>      -0.0900
    5 C5        0.0279    -2.8184    -2.5197 C.3    1 <0>       0.1000
    6 N6       -1.3313    -3.2884    -2.8191 N.3    1 <0>      -0.5300
    7 C7       -1.9444    -3.9140    -1.6384 C.3    1 <0>       0.0200
    8 C8       -3.3772    -4.3343    -1.9764 C.3    1 <0>       0.0600
    9 O9       -3.3574    -5.2120    -3.1054 O.3    1 <0>      -0.3900
   10 C10      -2.7675    -4.6346    -4.2733 C.3    1 <0>       0.0600
   11 C11      -1.3285    -4.2174    -3.9585 C.3    1 <0>       0.0200
   12 C12       0.0405    -2.7720    -0.0132 C.ar   1 <0>       0.1000
   13 O13       0.0594    -4.1317    -0.0207 O.3    1 <0>      -0.4900
   14 C14       0.0378    -2.0852     1.1917 C.ar   1 <0>      -0.1100
   15 C15       0.0229    -0.7039     1.1993 C.ar   1 <0>      -0.0900
   16 C16       0.0200     0.0424     2.5085 C.3    1 <0>       0.1000
   17 N17      -1.3476     0.4791     2.8201 N.3    1 <0>      -0.5300
   18 C18      -1.9863     1.0895     1.6450 C.3    1 <0>       0.0200
   19 C19      -3.4258     1.4748     1.9959 C.3    1 <0>       0.0600
   20 O20      -3.4173     2.3529     3.1247 O.3    1 <0>      -0.3900
   21 C21      -2.8031     1.7902     4.2872 C.3    1 <0>       0.0600
   22 C22      -1.3572     1.4080     3.9595 C.3    1 <0>       0.0200
   23 H23       0.8616     1.7609     0.0033 H      1 <0>       0.3900
   24 H24      -0.0064    -0.1459    -2.1352 H      1 <0>       0.1400
   25 H25       0.3664    -2.1548    -3.3154 H      1 <0>       0.0900
   26 H26       0.7006    -3.6732    -2.4489 H      1 <0>       0.0500
   27 H27      -1.3661    -4.7917    -1.3499 H      1 <0>       0.0600
   28 H28      -1.9592    -3.2002    -0.8147 H      1 <0>       0.0900
   29 H29      -3.8164    -4.8497    -1.1223 H      1 <0>       0.1000
   30 H30      -3.9696    -3.4504    -2.2130 H      1 <0>       0.0600
   31 H31      -2.7658    -5.3673    -5.0803 H      1 <0>       0.1000
   32 H32      -3.3422    -3.7595    -4.5766 H      1 <0>       0.0600
   33 H33      -0.8938    -3.7251    -4.8284 H      1 <0>       0.0900
   34 H34      -0.7404    -5.0999    -3.7071 H      1 <0>       0.0400
   35 H35       0.9482    -4.5127    -0.0275 H      1 <0>       0.3900
   36 H36       0.0507    -2.6302     2.1240 H      1 <0>       0.1400
   37 H37       0.3816    -0.6127     3.3010 H      1 <0>       0.0900
   38 H38       0.6709     0.9133     2.4317 H      1 <0>       0.0500
   39 H39      -1.4321     1.9810     1.3514 H      1 <0>       0.0600
   40 H40      -1.9911     0.3755     0.8214 H      1 <0>       0.0900
   41 H41      -3.8851     1.9793     1.1458 H      1 <0>       0.1000
   42 H42      -3.9944     0.5768     2.2376 H      1 <0>       0.0600
   43 H43      -2.8120     2.5228     5.0943 H      1 <0>       0.1000
   44 H44      -3.3535     0.9013     4.5956 H      1 <0>       0.0600
   45 H45      -0.9028     0.9266     4.8254 H      1 <0>       0.0900
   46 H46      -0.7930     2.3047     3.7030 H      1 <0>       0.0400
@<TRIPOS>BOND
   1    1    2 1
   2    1   23 1
   3    2   15 ar
   4    2    3 ar
   5    3    4 ar
   6    3   24 1
   7    4    5 1
   8    4   12 ar
   9    5    6 1
  10    5   25 1
  11    5   26 1
  12    6   11 1
  13    6    7 1
  14    7    8 1
  15    7   27 1
  16    7   28 1
  17    8    9 1
  18    8   29 1
  19    8   30 1
  20    9   10 1
  21   10   11 1
  22   10   31 1
  23   10   32 1
  24   11   33 1
  25   11   34 1
  26   12   13 1
  27   12   14 ar
  28   13   35 1
  29   14   15 ar
  30   14   36 1
  31   15   16 1
  32   16   17 1
  33   16   37 1
  34   16   38 1
  35   17   22 1
  36   17   18 1
  37   18   19 1
  38   18   39 1
  39   18   40 1
  40   19   20 1
  41   19   41 1
  42   19   42 1
  43   20   21 1
  44   21   22 1
  45   21   43 1
  46   21   44 1
  47   22   45 1
  48   22   46 1
