@<TRIPOS>MOLECULE
ZINC000073139455
  37   40    0    0    0
SMALL
USER_CHARGES
NO_NAME
@<TRIPOS>ATOM
    1 O1       -0.0164     1.3545     0.0095 O.3    1 <0>      -0.5000
    2 C2        0.0021    -0.0041     0.0020 C.ar   1 <0>       0.1100
    3 C3        0.0058    -0.6902    -1.2049 C.ar   1 <0>      -0.1400
    4 C4        0.0245    -2.0692    -1.2156 C.ar   1 <0>      -0.0900
    5 C5        0.0401    -2.7738    -0.0132 C.ar   1 <0>      -0.0600
    6 C6        0.0607    -4.2575    -0.0214 C.ar   1 <0>      -0.0800
    7 C7        0.0704    -4.9577    -1.2269 C.ar   1 <0>       0.1100
    8 N8        0.0882    -6.2754    -1.2443 N.ar   1 <0>      -0.4700
    9 C9        0.0981    -6.9882    -0.1368 C.ar   1 <0>       0.1000
   10 C10       0.0895    -6.3675     1.1139 C.ar   1 <0>      -0.0700
   11 C11       0.1002    -7.1751     2.3528 C.2    1 <0>       0.1200
   12 C12       0.0874    -6.6744     3.6125 C.2    1 <0>      -0.1700
   13 C13       0.1051    -7.8167     4.5256 C.ar   1 <0>      -0.1200
   14 C14       0.1031    -7.9408     5.9180 C.ar   1 <0>      -0.0500
   15 C15       0.1237    -9.1808     6.4896 C.ar   1 <0>      -0.1700
   16 C16       0.1467   -10.3245     5.6953 C.ar   1 <0>       0.1300
   17 O17       0.1665   -11.5511     6.2806 O.3    1 <0>      -0.5000
   18 C18       0.1491   -10.2229     4.3162 C.ar   1 <0>      -0.1600
   19 C19       0.1283    -8.9689     3.7163 C.ar   1 <0>       0.1200
   20 N20       0.1189    -8.5511     2.4037 N.pl3  1 <0>      -0.5900
   21 C21       0.0765    -4.9714     1.1773 C.ar   1 <0>      -0.0500
   22 C22       0.0368    -2.0823     1.1968 C.ar   1 <0>      -0.0900
   23 C23       0.0230    -0.7033     1.2012 C.ar   1 <0>      -0.1400
   24 H24       0.8616     1.7598     0.0033 H      1 <0>       0.3900
   25 H25      -0.0063    -0.1436    -2.1362 H      1 <0>       0.1300
   26 H26       0.0266    -2.6025    -2.1547 H      1 <0>       0.1300
   27 H27       0.0628    -4.4128    -2.1593 H      1 <0>       0.1600
   28 H28       0.1127    -8.0664    -0.1968 H      1 <0>       0.1500
   29 H29       0.0678    -5.6306     3.8891 H      1 <0>       0.1500
   30 H30       0.0857    -7.0582     6.5401 H      1 <0>       0.1300
   31 H31       0.1225    -9.2753     7.5655 H      1 <0>       0.1300
   32 H32      -0.7110   -11.9218     6.4470 H      1 <0>       0.3900
   33 H33       0.1670   -11.1147     3.7072 H      1 <0>       0.1300
   34 H34       0.1261    -9.1379     1.6314 H      1 <0>       0.4200
   35 H35       0.0699    -4.4593     2.1281 H      1 <0>       0.1500
   36 H36       0.0489    -2.6257     2.1300 H      1 <0>       0.1300
   37 H37       0.0204    -0.1668     2.1386 H      1 <0>       0.1300
@<TRIPOS>BOND
   1    1    2 1
   2    1   24 1
   3    2   23 ar
   4    2    3 ar
   5    3    4 ar
   6    3   25 1
   7    4    5 ar
   8    4   26 1
   9    5    6 1
  10    5   22 ar
  11    6   21 ar
  12    6    7 ar
  13    7    8 ar
  14    7   27 1
  15    8    9 ar
  16    9   10 ar
  17    9   28 1
  18   10   11 1
  19   10   21 ar
  20   11   20 1
  21   11   12 2
  22   12   13 1
  23   12   29 1
  24   13   19 ar
  25   13   14 ar
  26   14   15 ar
  27   14   30 1
  28   15   16 ar
  29   15   31 1
  30   16   17 1
  31   16   18 ar
  32   17   32 1
  33   18   19 ar
  34   18   33 1
  35   19   20 1
  36   20   34 1
  37   21   35 1
  38   22   23 ar
  39   22   36 1
  40   23   37 1
