@<TRIPOS>MOLECULE
ZINC000000710981
44    46    1     0     0
SMALL
USER_CHARGES
@<TRIPOS>ATOM
1      O1     -0.1070   -0.7345    1.0441 O.2      1 ZINC000000710981   -0.5000
2      C2     -0.0742    0.4774    1.1341 C.2      1 ZINC000000710981    0.5600
3      N3      1.0895    1.1020    1.4026 N.am     1 ZINC000000710981   -0.6700
4      C4      2.2367    0.3527    1.6841 C.ar     1 ZINC000000710981    0.1600
5      C5      3.1580    0.8143    2.6153 C.ar     1 ZINC000000710981   -0.1400
6      C6      4.2898    0.0725    2.8912 C.ar     1 ZINC000000710981   -0.0700
7      C7      4.5063   -1.1295    2.2409 C.ar     1 ZINC000000710981   -0.1000
8      Br8     6.0568   -2.1427    2.6219 Br       1 ZINC000000710981   -0.0500
9      C9      3.5901   -1.5917    1.3128 C.ar     1 ZINC000000710981   -0.0700
10     C10     2.4538   -0.8569    1.0371 C.ar     1 ZINC000000710981   -0.1100
11     C11    -1.3091    1.2662    0.9431 C.ar     1 ZINC000000710981   -0.1400
12     C12    -1.2736    2.6583    1.0402 C.ar     1 ZINC000000710981   -0.0300
13     C13    -2.4296    3.3890    0.8609 C.ar     1 ZINC000000710981   -0.1100
14     C14    -3.6237    2.7444    0.5856 C.ar     1 ZINC000000710981    0.0200
15     Br15   -5.2040    3.7537    0.3412 Br       1 ZINC000000710981    0.0000
16     C16    -3.6654    1.3634    0.4881 C.ar     1 ZINC000000710981   -0.6600
17     S17    -5.1897    0.5525    0.1368 S.o2     1 ZINC000000710981    2.6900
18     O18    -4.8958   -0.8352    0.0522 O.2      1 ZINC000000710981   -0.9400
19     O19    -6.1475    1.0906    1.0382 O.2      1 ZINC000000710981   -0.9300
20     N20    -5.6580    1.0247   -1.3798 N.am     1 ZINC000000710981   -1.1100
21     C21    -4.8235    0.6986   -2.5388 C.3      1 ZINC000000710981    0.1600
22     C22    -5.6348    0.8479   -3.8000 C.ar     1 ZINC000000710981   -0.1000
23     C23    -6.3474   -0.2283   -4.2948 C.ar     1 ZINC000000710981   -0.1000
24     C24    -7.0917   -0.0914   -5.4516 C.ar     1 ZINC000000710981   -0.1200
25     C25    -7.1236    1.1218   -6.1134 C.ar     1 ZINC000000710981   -0.1100
26     C26    -6.4118    2.1983   -5.6181 C.ar     1 ZINC000000710981   -0.1200
27     C27    -5.6709    2.0625   -4.4589 C.ar     1 ZINC000000710981   -0.1000
28     C28    -2.5152    0.6223    0.6591 C.ar     1 ZINC000000710981    0.0500
29     H29     1.1316    2.0711    1.4007 H        1 ZINC000000710981    0.4100
30     H30     2.9897    1.7526    3.1230 H        1 ZINC000000710981    0.1400
31     H31     5.0067    0.4311    3.6150 H        1 ZINC000000710981    0.1400
32     H32     3.7618   -2.5301    0.8064 H        1 ZINC000000710981    0.1400
33     H33     1.7390   -1.2182    0.3125 H        1 ZINC000000710981    0.1500
34     H34    -0.3429    3.1622    1.2556 H        1 ZINC000000710981    0.1500
35     H35    -2.4034    4.4660    0.9358 H        1 ZINC000000710981    0.1500
36     H36    -6.4850    1.5171   -1.5007 H        1 ZINC000000710981    0.4200
37     H37    -3.9698    1.3755   -2.5737 H        1 ZINC000000710981    0.0700
38     H38    -4.4693   -0.3288   -2.4541 H        1 ZINC000000710981    0.0900
39     H39    -6.3224   -1.1762   -3.7777 H        1 ZINC000000710981    0.1300
40     H40    -7.6478   -0.9325   -5.8386 H        1 ZINC000000710981    0.1300
41     H41    -7.7045    1.2285   -7.0176 H        1 ZINC000000710981    0.1200
42     H42    -6.4365    3.1460   -6.1353 H        1 ZINC000000710981    0.1200
43     H43    -5.1148    2.9036   -4.0719 H        1 ZINC000000710981    0.1200
44     H44    -2.5490   -0.4544    0.5828 H        1 ZINC000000710981    0.1700
@<TRIPOS>BOND
1     1     2     2
2     2     3     am
3     2     11    1
4     3     4     1
5     3     29    1
6     4     10    ar
7     4     5     ar
8     5     6     ar
9     5     30    1
10    6     7     ar
11    6     31    1
12    7     8     1
13    7     9     ar
14    9     10    ar
15    9     32    1
16    10    33    1
17    11    28    ar
18    11    12    ar
19    12    13    ar
20    12    34    1
21    13    14    ar
22    13    35    1
23    14    15    1
24    14    16    ar
25    16    17    1
26    16    28    ar
27    17    18    2
28    17    19    2
29    17    20    am
30    20    21    1
31    20    36    1
32    21    22    1
33    21    37    1
34    21    38    1
35    22    27    ar
36    22    23    ar
37    23    24    ar
38    23    39    1
39    24    25    ar
40    24    40    1
41    25    26    ar
42    25    41    1
43    26    27    ar
44    26    42    1
45    27    43    1
46    28    44    1
@<TRIPOS>SUBSTRUCTURE
1   ZINC000000710981 1     RESIDUE    1   A     ZIN   1
