@<TRIPOS>MOLECULE
ZINC000096174406
53    57    1     0     0
SMALL
USER_CHARGES
@<TRIPOS>ATOM
1      C1     -0.0199    1.3876    2.6651 C.3      1 ZINC000096174406   -0.1500
2      C2     -0.2685    0.5797    1.3899 C.3      1 ZINC000096174406    0.0500
3      H3     -0.2725    1.2492    0.5298 H        1 ZINC000096174406    0.0700
4      C4     -1.6207   -0.1312    1.4905 C.3      1 ZINC000096174406    0.0700
5      O5     -1.8140   -0.9437    0.3296 O.3      1 ZINC000096174406   -0.3800
6      C6     -0.7964   -1.9309    0.1418 C.3      1 ZINC000096174406    0.0600
7      C7      0.5641   -1.2382    0.0275 C.3      1 ZINC000096174406    0.0200
8      N8      0.7958   -0.4215    1.2277 N.3      1 ZINC000096174406   -0.4800
9      C9      2.0430    0.1803    1.1857 C.ar     1 ZINC000096174406    0.3700
10     C10     3.0263   -0.1603    2.1182 C.ar     1 ZINC000096174406   -0.2300
11     C11     4.2563    0.4656    2.0385 C.ar     1 ZINC000096174406    0.2400
12     C12     5.3469    0.1294    3.0226 C.3      1 ZINC000096174406   -0.6000
13     S13     5.3542   -1.5803    3.6287 S.o2     1 ZINC000096174406    2.3400
14     C14     5.4161   -2.6635    2.1748 C.3      1 ZINC000096174406   -0.6400
15     N15     6.6214   -1.7810    4.3932 N.am     1 ZINC000096174406   -1.2100
16     O16     4.2793   -1.8746    4.5103 O.2      1 ZINC000096174406   -0.8800
17     C17     6.6997    0.8210    2.8415 C.3      1 ZINC000096174406   -0.1000
18     C18     5.7820    1.2261    3.9968 C.3      1 ZINC000096174406   -0.0900
19     N19     4.4661    1.3629    1.0883 N.ar     1 ZINC000096174406   -0.5000
20     C20     3.5145    1.6672    0.2158 C.ar     1 ZINC000096174406    0.3900
21     C21     3.7913    2.6774   -0.8321 C.ar     1 ZINC000096174406    0.0300
22     C22     2.7788    3.1149   -1.7054 C.ar     1 ZINC000096174406   -0.1100
23     C23     1.3624    2.7969   -1.8678 C.2      1 ZINC000096174406   -0.1800
24     C24     0.9089    3.5452   -2.8880 C.2      1 ZINC000096174406    0.0600
25     N25     1.9238    4.3144   -3.3883 N.pl3    1 ZINC000096174406   -0.5800
26     C26     3.0829    4.0766   -2.6881 C.ar     1 ZINC000096174406    0.2800
27     N27     4.3141    4.5592   -2.7816 N.ar     1 ZINC000096174406   -0.4800
28     C28     5.2798    4.1670   -1.9773 C.ar     1 ZINC000096174406    0.1300
29     C29     5.0630    3.2306   -0.9820 C.ar     1 ZINC000096174406   -0.1500
30     N30     2.3234    1.0856    0.2549 N.ar     1 ZINC000096174406   -0.5200
31     H31     0.9764    1.8281    2.6278 H        1 ZINC000096174406    0.0500
32     H32    -0.7645    2.1797    2.7444 H        1 ZINC000096174406    0.0700
33     H33    -0.0945    0.7307    3.5318 H        1 ZINC000096174406    0.0700
34     H34    -1.6362   -0.7594    2.3811 H        1 ZINC000096174406    0.0700
35     H35    -2.4177    0.6097    1.5531 H        1 ZINC000096174406    0.1100
36     H36    -0.7879   -2.6115    0.9932 H        1 ZINC000096174406    0.0700
37     H37    -0.9972   -2.4916   -0.7711 H        1 ZINC000096174406    0.1100
38     H38     1.3490   -1.9897   -0.0585 H        1 ZINC000096174406    0.0900
39     H39     0.5738   -0.5983   -0.8549 H        1 ZINC000096174406    0.0600
40     H40     2.8296   -0.8958    2.8843 H        1 ZINC000096174406    0.1600
41     H41     6.3615   -2.5169    1.6526 H        1 ZINC000096174406    0.1300
42     H42     5.3337   -3.7029    2.4924 H        1 ZINC000096174406    0.1400
43     H43     4.5902   -2.4214    1.5060 H        1 ZINC000096174406    0.1100
44     H44     7.4770   -1.6291    3.9624 H        1 ZINC000096174406    0.3800
45     H45     7.5943    0.2485    3.0864 H        1 ZINC000096174406    0.1100
46     H46     6.8007    1.5190    2.0105 H        1 ZINC000096174406    0.1300
47     H47     5.2794    2.1907    3.9258 H        1 ZINC000096174406    0.1100
48     H48     6.0730    0.9202    5.0017 H        1 ZINC000096174406    0.1200
49     H49     0.7893    2.0947   -1.2806 H        1 ZINC000096174406    0.1600
50     H50    -0.1058    3.5400   -3.2579 H        1 ZINC000096174406    0.1800
51     H51     1.8382    4.9360   -4.1280 H        1 ZINC000096174406    0.4200
52     H52     6.2663    4.5908   -2.0945 H        1 ZINC000096174406    0.1700
53     H53     5.8713    2.9250   -0.3342 H        1 ZINC000096174406    0.1500
@<TRIPOS>BOND
1     1     2     1
2     1     31    1
3     1     32    1
4     1     33    1
5     2     3     1
6     2     8     1
7     2     4     1
8     4     5     1
9     4     34    1
10    4     35    1
11    5     6     1
12    6     7     1
13    6     36    1
14    6     37    1
15    7     8     1
16    7     38    1
17    7     39    1
18    8     9     1
19    9     30    ar
20    9     10    ar
21    10    11    ar
22    10    40    1
23    11    12    1
24    11    19    ar
25    12    18    1
26    12    13    1
27    12    17    1
28    13    14    1
29    13    15    2
30    13    16    2
31    14    41    1
32    14    42    1
33    14    43    1
34    15    44    1
35    17    18    1
36    17    45    1
37    17    46    1
38    18    47    1
39    18    48    1
40    19    20    ar
41    20    21    1
42    20    30    ar
43    21    29    ar
44    21    22    ar
45    22    26    ar
46    22    23    1
47    23    24    2
48    23    49    1
49    24    25    1
50    24    50    1
51    25    26    1
52    25    51    1
53    26    27    ar
54    27    28    ar
55    28    29    ar
56    28    52    1
57    29    53    1
@<TRIPOS>SUBSTRUCTURE
1   ZINC000096174406 1     RESIDUE    1   A     ZIN   1
