@<TRIPOS>MOLECULE
ZINC000001563797
32    34    1     0     0
SMALL
USER_CHARGES
@<TRIPOS>ATOM
1      O1      0.0021   -0.0041    0.0020 O.2      1 ZINC000001563797   -0.4200
2      C2     -0.0144    1.2083    0.0087 C.2      1 ZINC000001563797    0.4100
3      C3      1.2803    1.9795    0.0005 C.3      1 ZINC000001563797   -0.0300
4      O4      2.3789    1.0658   -0.0149 O.3      1 ZINC000001563797   -0.0800
5      N5      3.6489    1.6921   -0.0237 N.am     1 ZINC000001563797   -0.4500
6      C6      4.3183    2.0399   -1.1375 C.2      1 ZINC000001563797    0.5700
7      O7      3.9351    1.8692   -2.2772 O.2      1 ZINC000001563797   -0.4400
8      C8      5.5978    2.6655   -0.7420 C.ar     1 ZINC000001563797   -0.1300
9      C9      6.6674    3.2040   -1.4383 C.ar     1 ZINC000001563797   -0.0400
10     C10     7.7475    3.7260   -0.7430 C.ar     1 ZINC000001563797   -0.0900
11     C11     7.7637    3.7125    0.6387 C.ar     1 ZINC000001563797   -0.0900
12     C12     6.7002    3.1768    1.3490 C.ar     1 ZINC000001563797   -0.0400
13     C13     5.6143    2.6517    0.6677 C.ar     1 ZINC000001563797   -0.1300
14     C14     4.3420    2.0228    1.0808 C.2      1 ZINC000001563797    0.5700
15     O15     3.9834    1.8344    2.2257 O.2      1 ZINC000001563797   -0.4400
16     C16    -1.2987    1.9268    0.0187 C.ar     1 ZINC000001563797   -0.1600
17     C17    -1.3219    3.3251    0.0205 C.ar     1 ZINC000001563797   -0.0800
18     C18    -2.5293    3.9909    0.0294 C.ar     1 ZINC000001563797   -0.1300
19     C19    -3.7162    3.2791    0.0370 C.ar     1 ZINC000001563797   -0.0800
20     C20    -3.7016    1.8951    0.0352 C.ar     1 ZINC000001563797   -0.1300
21     C21    -2.5024    1.2147    0.0205 C.ar     1 ZINC000001563797   -0.0500
22     H22     1.3211    2.6117   -0.8866 H        1 ZINC000001563797    0.1100
23     H23     1.3381    2.6021    0.8933 H        1 ZINC000001563797    0.1100
24     H24     6.6603    3.2169   -2.5182 H        1 ZINC000001563797    0.1500
25     H25     8.5820    4.1457   -1.2850 H        1 ZINC000001563797    0.1500
26     H26     8.6108    4.1218    1.1691 H        1 ZINC000001563797    0.1500
27     H27     6.7181    3.1693    2.4288 H        1 ZINC000001563797    0.1500
28     H28    -0.3965    3.8820    0.0154 H        1 ZINC000001563797    0.1300
29     H29    -2.5489    5.0708    0.0309 H        1 ZINC000001563797    0.1300
30     H30    -4.6588    3.8063    0.0447 H        1 ZINC000001563797    0.1300
31     H31    -4.6320    1.3467    0.0415 H        1 ZINC000001563797    0.1300
32     H32    -2.4926    0.1348    0.0188 H        1 ZINC000001563797    0.1400
@<TRIPOS>BOND
1     1     2     2
2     2     3     1
3     2     16    1
4     3     4     1
5     3     22    1
6     3     23    1
7     4     5     1
8     5     14    am
9     5     6     am
10    6     7     2
11    6     8     1
12    8     13    ar
13    8     9     ar
14    9     10    ar
15    9     24    1
16    10    11    ar
17    10    25    1
18    11    12    ar
19    11    26    1
20    12    13    ar
21    12    27    1
22    13    14    1
23    14    15    2
24    16    21    ar
25    16    17    ar
26    17    18    ar
27    17    28    1
28    18    19    ar
29    18    29    1
30    19    20    ar
31    19    30    1
32    20    21    ar
33    20    31    1
34    21    32    1
@<TRIPOS>SUBSTRUCTURE
1   ZINC000001563797 1     RESIDUE    1   A     ZIN   1
