@<TRIPOS>MOLECULE
ZINC000005821119
  55   57    0    0    0
SMALL
USER_CHARGES
NO_NAME
@<TRIPOS>ATOM
    1 C1        0.7071     1.8834    -0.7852 C.3    1 <0>      -0.1500
    2 C2        0.6399     0.3673    -0.5908 C.3    1 <0>      -0.1300
    3 C3        1.1644    -0.3316    -1.8467 C.3    1 <0>      -0.1200
    4 C4        1.0972    -1.8477    -1.6524 C.3    1 <0>      -0.1200
    5 C5        1.6217    -2.5466    -2.9083 C.3    1 <0>      -0.0800
    6 C6        1.5555    -4.0399    -2.7169 C.ar   1 <0>      -0.0200
    7 C7        2.6522    -4.7183    -2.2781 C.ar   1 <0>      -0.1600
    8 C8        2.6139    -6.1033    -2.0959 C.ar   1 <0>       0.1300
    9 C9        1.4425    -6.7978    -2.3715 C.ar   1 <0>      -0.1900
   10 C10       0.3188    -6.1198    -2.8132 C.ar   1 <0>       0.1500
   11 O11      -0.8257    -6.7990    -3.0737 O.3    1 <0>      -0.4800
   12 C12       0.3649    -4.7268    -2.9850 C.ar   1 <0>      -0.1500
   13 C13      -0.8215    -3.9983    -3.4530 C.2    1 <0>       0.5400
   14 O14      -1.6505    -3.5969    -2.6472 O.co2  1 <0>      -0.6800
   15 O15      -0.9811    -3.7928    -4.6489 O.co2  1 <0>      -0.6900
   16 C16       1.4013    -8.2860    -2.2015 C.3    1 <0>       0.0000
   17 H17       1.6468    -8.7470    -3.1583 H      1 <0>       0.0800
   18 C18       0.0786    -8.8132    -1.7519 C.2    1 <0>      -0.1400
   19 C19      -0.0168    -9.8497    -0.9709 C.2    1 <0>      -0.1500
   20 C20      -1.4018   -10.3139    -0.6002 C.3    1 <0>      -0.1200
   21 C21       1.1413   -10.6186    -0.4113 C.3    1 <0>      -0.0800
   22 C22       2.4597   -10.2189    -1.0846 C.3    1 <0>      -0.1100
   23 C23       2.4705    -8.6958    -1.1833 C.3    1 <0>      -0.1100
   24 H24       2.2436    -8.2674    -0.2070 H      1 <0>       0.0800
   25 C25       3.7994    -8.1397    -1.6854 C.3    1 <0>       0.1200
   26 C26       4.9366    -8.6177    -0.7804 C.3    1 <0>      -0.1400
   27 C27       4.0479    -8.6071    -3.1209 C.3    1 <0>      -0.1800
   28 O28       3.7335    -6.7216    -1.6440 O.3    1 <0>      -0.3100
   29 H29       1.7405     2.1816    -0.9621 H      1 <0>       0.0500
   30 H30       0.0953     2.1675    -1.6414 H      1 <0>       0.0500
   31 H31       0.3334     2.3814     0.1096 H      1 <0>       0.0500
   32 H32       1.2517     0.0833     0.2654 H      1 <0>       0.0600
   33 H33      -0.3935     0.0692    -0.4138 H      1 <0>       0.0600
   34 H34       0.5525    -0.0475    -2.7029 H      1 <0>       0.0600
   35 H35       2.1978    -0.0334    -2.0237 H      1 <0>       0.0500
   36 H36       1.7090    -2.1317    -0.7962 H      1 <0>       0.0500
   37 H37       0.0638    -2.1459    -1.4754 H      1 <0>       0.0800
   38 H38       1.0098    -2.2626    -3.7645 H      1 <0>       0.0800
   39 H39       2.6551    -2.2484    -3.0853 H      1 <0>       0.0600
   40 H40       3.5638    -4.1785    -2.0685 H      1 <0>       0.1200
   41 H41      -0.8799    -7.1476    -3.9740 H      1 <0>       0.3800
   42 H42      -0.8234    -8.3207    -2.0836 H      1 <0>       0.1500
   43 H43      -2.1406    -9.6679    -1.0745 H      1 <0>       0.0600
   44 H44      -1.5444   -11.3396    -0.9402 H      1 <0>       0.0600
   45 H45      -1.5221   -10.2698     0.4822 H      1 <0>       0.0600
   46 H46       1.2144   -10.4239     0.6587 H      1 <0>       0.0700
   47 H47       0.9703   -11.6838    -0.5674 H      1 <0>       0.0700
   48 H48       3.3009   -10.5572    -0.4797 H      1 <0>       0.0700
   49 H49       2.5163   -10.6623    -2.0787 H      1 <0>       0.0700
   50 H50       4.9752    -9.7070    -0.7900 H      1 <0>       0.0800
   51 H51       5.8830    -8.2174    -1.1439 H      1 <0>       0.0600
   52 H52       4.7618    -8.2693     0.2376 H      1 <0>       0.0600
   53 H53       3.2426    -8.2511    -3.7635 H      1 <0>       0.0700
   54 H54       4.9983    -8.2068    -3.4739 H      1 <0>       0.0600
   55 H55       4.0799    -9.6963    -3.1480 H      1 <0>       0.0700
@<TRIPOS>BOND
   1    1    2 1
   2    1   29 1
   3    1   30 1
   4    1   31 1
   5    2    3 1
   6    2   32 1
   7    2   33 1
   8    3    4 1
   9    3   34 1
  10    3   35 1
  11    4    5 1
  12    4   36 1
  13    4   37 1
  14    5    6 1
  15    5   38 1
  16    5   39 1
  17    6   12 ar
  18    6    7 ar
  19    7    8 ar
  20    7   40 1
  21    8   28 1
  22    8    9 ar
  23    9   10 ar
  24    9   16 1
  25   10   11 1
  26   10   12 ar
  27   11   41 1
  28   12   13 1
  29   13   14 ar
  30   13   15 ar
  31   16   17 1
  32   16   23 1
  33   16   18 1
  34   18   19 2
  35   18   42 1
  36   19   20 1
  37   19   21 1
  38   20   43 1
  39   20   44 1
  40   20   45 1
  41   21   22 1
  42   21   46 1
  43   21   47 1
  44   22   23 1
  45   22   48 1
  46   22   49 1
  47   23   24 1
  48   23   25 1
  49   25   26 1
  50   25   27 1
  51   25   28 1
  52   26   50 1
  53   26   51 1
  54   26   52 1
  55   27   53 1
  56   27   54 1
  57   27   55 1
