@<TRIPOS>MOLECULE
ZINC000002526465
35    37    1     0     0
SMALL
USER_CHARGES
@<TRIPOS>ATOM
1      O1      0.3194   -0.3698   -0.3359 O.2      1 ZINC000002526465   -0.4400
2      C2      0.1085    0.8251   -0.2936 C.2      1 ZINC000002526465    0.5500
3      N3     -1.0973    1.4144   -0.3752 N.am     1 ZINC000002526465   -0.6800
4      C4     -0.9668    2.7496   -0.2934 C.2      1 ZINC000002526465    0.5900
5      O5     -1.8764    3.5540   -0.3358 O.2      1 ZINC000002526465   -0.4500
6      C6      0.4635    3.0766   -0.1432 C.2      1 ZINC000002526465   -0.1300
7      C7      1.0545    4.4261   -0.0178 C.ar     1 ZINC000002526465    0.0400
8      C8      1.7232    5.0020   -1.0996 C.ar     1 ZINC000002526465   -0.1000
9      C9      2.2724    6.2615   -0.9758 C.ar     1 ZINC000002526465   -0.0600
10     C10     2.1616    6.9537    0.2171 C.ar     1 ZINC000002526465   -0.1100
11     C11     1.5000    6.3887    1.2934 C.ar     1 ZINC000002526465   -0.0500
12     C12     0.9414    5.1327    1.1814 C.ar     1 ZINC000002526465   -0.0200
13     N13     0.2337    4.5301    2.3335 N.pl3    1 ZINC000002526465    0.0300
14     O14     0.1442    5.1436    3.3819 O.2      1 ZINC000002526465   -0.1500
15     O15    -0.2591    3.4208    2.2331 O.2      1 ZINC000002526465   -0.1600
16     C16     1.1363    1.8823   -0.1368 C.2      1 ZINC000002526465    0.1500
17     N17     2.4966    1.7010   -0.0167 N.pl3    1 ZINC000002526465   -0.6500
18     C18     3.0081    0.9208    1.0229 C.ar     1 ZINC000002526465    0.1900
19     C19     2.1621    0.4487    2.0189 C.ar     1 ZINC000002526465   -0.1400
20     C20     2.6683   -0.3230    3.0462 C.ar     1 ZINC000002526465   -0.0900
21     C21     4.0209   -0.6268    3.0847 C.ar     1 ZINC000002526465    0.0800
22     O22     4.5181   -1.3868    4.0968 O.3      1 ZINC000002526465   -0.4800
23     C23     4.8680   -0.1558    2.0900 C.ar     1 ZINC000002526465   -0.0200
24     Cl24    6.5610   -0.5368    2.1394 Cl       1 ZINC000002526465   -0.0500
25     C25     4.3627    0.6114    1.0586 C.ar     1 ZINC000002526465   -0.1500
26     H26    -1.9393    0.9441   -0.4786 H        1 ZINC000002526465    0.4400
27     H27     1.8107    4.4626   -2.0312 H        1 ZINC000002526465    0.1500
28     H28     2.7902    6.7080   -1.8118 H        1 ZINC000002526465    0.1500
29     H29     2.5936    7.9393    0.3088 H        1 ZINC000002526465    0.1500
30     H30     1.4174    6.9343    2.2219 H        1 ZINC000002526465    0.1600
31     H31     3.0992    2.1150   -0.6541 H        1 ZINC000002526465    0.4200
32     H32     1.1088    0.6855    1.9898 H        1 ZINC000002526465    0.1300
33     H33     2.0105   -0.6899    3.8202 H        1 ZINC000002526465    0.1500
34     H34     4.5114   -2.3366    3.9154 H        1 ZINC000002526465    0.3900
35     H35     5.0211    0.9775    0.2848 H        1 ZINC000002526465    0.1400
@<TRIPOS>BOND
1     1     2     2
2     2     16    1
3     2     3     am
4     3     4     am
5     3     26    1
6     4     5     2
7     4     6     1
8     6     7     1
9     6     16    2
10    7     12    ar
11    7     8     ar
12    8     9     ar
13    8     27    1
14    9     10    ar
15    9     28    1
16    10    11    ar
17    10    29    1
18    11    12    ar
19    11    30    1
20    12    13    1
21    13    14    2
22    13    15    2
23    16    17    1
24    17    18    1
25    17    31    1
26    18    25    ar
27    18    19    ar
28    19    20    ar
29    19    32    1
30    20    21    ar
31    20    33    1
32    21    22    1
33    21    23    ar
34    22    34    1
35    23    24    1
36    23    25    ar
37    25    35    1
@<TRIPOS>SUBSTRUCTURE
1   ZINC000002526465 1     RESIDUE    1   A     ZIN   1
