@<TRIPOS>MOLECULE
ZINC000014976476
60    62    1     0     0
SMALL
USER_CHARGES
@<TRIPOS>ATOM
1      C1     -0.0225    1.8097    0.0120 C.3      1 ZINC000014976476   -0.1600
2      S2      0.0021   -0.0041    0.0020 S.3      1 ZINC000014976476   -0.1100
3      C3     -1.7597   -0.4361    0.0165 C.3      1 ZINC000014976476    0.0900
4      H4     -2.2611    0.0542   -0.8179 H        1 ZINC000014976476    0.0800
5      O5     -2.3463   -0.0037    1.2457 O.3      1 ZINC000014976476   -0.3400
6      C6     -3.7457   -0.2734    1.3510 C.3      1 ZINC000014976476    0.0500
7      H7     -4.2732    0.2190    0.5341 H        1 ZINC000014976476    0.0800
8      C8     -4.2681    0.2559    2.6881 C.3      1 ZINC000014976476    0.0900
9      O9     -4.1547    1.6802    2.7137 O.3      1 ZINC000014976476   -0.5600
10     C10    -3.9801   -1.7842    1.2731 C.3      1 ZINC000014976476    0.0700
11     H11    -5.0501   -1.9892    1.3088 H        1 ZINC000014976476    0.0800
12     O12    -3.3340   -2.4252    2.3748 O.3      1 ZINC000014976476   -0.5400
13     C13    -3.4008   -2.3157   -0.0416 C.3      1 ZINC000014976476    0.1500
14     H14    -3.9282   -1.8638   -0.8816 H        1 ZINC000014976476    0.1100
15     N15    -3.5553   -3.7717   -0.0920 N.am     1 ZINC000014976476   -0.7000
16     C16    -4.7087   -4.3121   -0.5328 C.2      1 ZINC000014976476    0.5600
17     O17    -5.6207   -3.5914   -0.8884 O.2      1 ZINC000014976476   -0.5600
18     C18    -4.8647   -5.7814   -0.5837 C.ar     1 ZINC000014976476   -0.1400
19     C19    -3.8215   -6.6117   -0.1706 C.ar     1 ZINC000014976476   -0.0700
20     C20    -3.9737   -7.9820   -0.2203 C.ar     1 ZINC000014976476   -0.1300
21     C21    -5.1570   -8.5335   -0.6786 C.ar     1 ZINC000014976476   -0.0700
22     C22    -5.3159  -10.0312   -0.7305 C.3      1 ZINC000014976476   -0.1200
23     C23    -6.1950   -7.7161   -1.0891 C.ar     1 ZINC000014976476   -0.1400
24     C24    -6.0578   -6.3442   -1.0396 C.ar     1 ZINC000014976476   -0.0600
25     C25    -1.9143   -1.9535   -0.1154 C.3      1 ZINC000014976476    0.1600
26     H26    -1.3787   -2.4459    0.6963 H        1 ZINC000014976476    0.0900
27     O27    -1.3800   -2.3823   -1.3694 O.3      1 ZINC000014976476   -0.7400
28     P28    -0.1711   -3.4385   -1.4924 P.3      1 ZINC000014976476    2.2200
29     O29    -0.5359   -4.7302   -0.7273 O.co2    1 ZINC000014976476   -1.1000
30     O30     1.1115   -2.8260   -0.8867 O.co2    1 ZINC000014976476   -1.0700
31     O31     0.0815   -3.7868   -3.0439 O.3      1 ZINC000014976476   -0.7600
32     C32     1.0200   -4.7735   -3.4772 C.3      1 ZINC000014976476    0.1700
33     C33     1.0097   -4.8498   -4.9822 C.ar     1 ZINC000014976476   -0.0800
34     C34     0.1450   -5.7162   -5.6245 C.ar     1 ZINC000014976476   -0.1000
35     C35     0.1355   -5.7862   -7.0050 C.ar     1 ZINC000014976476   -0.1300
36     C36     0.9905   -4.9895   -7.7433 C.ar     1 ZINC000014976476   -0.1200
37     C37     1.8546   -4.1224   -7.1012 C.ar     1 ZINC000014976476   -0.1300
38     C38     1.8610   -4.0493   -5.7208 C.ar     1 ZINC000014976476   -0.1000
39     H39     1.0001    2.1870    0.0043 H        1 ZINC000014976476    0.1000
40     H40    -0.5497    2.1708   -0.8711 H        1 ZINC000014976476    0.0700
41     H41    -0.5327    2.1613    0.9088 H        1 ZINC000014976476    0.0800
42     H42    -5.3138   -0.0275    2.8075 H        1 ZINC000014976476    0.0600
43     H43    -3.6811   -0.1700    3.5018 H        1 ZINC000014976476    0.0600
44     H44    -4.4682    2.0850    3.5340 H        1 ZINC000014976476    0.3800
45     H45    -3.6498   -2.1323    3.2405 H        1 ZINC000014976476    0.3700
46     H46    -2.8276   -4.3468    0.1918 H        1 ZINC000014976476    0.4200
47     H47    -2.8972   -6.1824    0.1867 H        1 ZINC000014976476    0.1400
48     H48    -3.1674   -8.6256    0.0991 H        1 ZINC000014976476    0.1300
49     H49    -5.7281  -10.3858    0.2142 H        1 ZINC000014976476    0.0700
50     H50    -5.9910  -10.2969   -1.5440 H        1 ZINC000014976476    0.0700
51     H51    -4.3437  -10.4941   -0.8993 H        1 ZINC000014976476    0.0700
52     H52    -7.1162   -8.1529   -1.4456 H        1 ZINC000014976476    0.1200
53     H53    -6.8689   -5.7072   -1.3600 H        1 ZINC000014976476    0.1300
54     H54     2.0181   -4.5010   -3.1341 H        1 ZINC000014976476    0.0600
55     H55     0.7453   -5.7433   -3.0623 H        1 ZINC000014976476    0.0600
56     H56    -0.5230   -6.3387   -5.0476 H        1 ZINC000014976476    0.1200
57     H57    -0.5396   -6.4636   -7.5067 H        1 ZINC000014976476    0.1200
58     H58     0.9836   -5.0447   -8.8219 H        1 ZINC000014976476    0.1200
59     H59     2.5228   -3.5002   -7.6780 H        1 ZINC000014976476    0.1200
60     H60     2.5361   -3.3719   -5.2190 H        1 ZINC000014976476    0.1200
@<TRIPOS>BOND
1     1     2     1
2     1     39    1
3     1     40    1
4     1     41    1
5     2     3     1
6     3     4     1
7     3     25    1
8     3     5     1
9     5     6     1
10    6     7     1
11    6     8     1
12    6     10    1
13    8     9     1
14    8     42    1
15    8     43    1
16    9     44    1
17    10    11    1
18    10    12    1
19    10    13    1
20    12    45    1
21    13    14    1
22    13    15    1
23    13    25    1
24    15    16    am
25    15    46    1
26    16    17    2
27    16    18    1
28    18    24    ar
29    18    19    ar
30    19    20    ar
31    19    47    1
32    20    21    ar
33    20    48    1
34    21    22    1
35    21    23    ar
36    22    49    1
37    22    50    1
38    22    51    1
39    23    24    ar
40    23    52    1
41    24    53    1
42    25    26    1
43    25    27    1
44    27    28    1
45    28    29    ar
46    28    30    ar
47    28    31    1
48    31    32    1
49    32    33    1
50    32    54    1
51    32    55    1
52    33    38    ar
53    33    34    ar
54    34    35    ar
55    34    56    1
56    35    36    ar
57    35    57    1
58    36    37    ar
59    36    58    1
60    37    38    ar
61    37    59    1
62    38    60    1
@<TRIPOS>SUBSTRUCTURE
1   ZINC000014976476 1     RESIDUE    1   A     ZIN   1
