@<TRIPOS>MOLECULE
ZINC000001546997
62    64    1     0     0
SMALL
USER_CHARGES
@<TRIPOS>ATOM
1      C1      0.0781    1.4120   -0.0695 C.3      1 ZINC000001546997    0.0200
2      O2      0.0002   -0.0144   -0.0321 O.3      1 ZINC000001546997   -0.3000
3      C3     -1.2434   -0.5645   -0.0150 C.ar     1 ZINC000001546997    0.1300
4      C4     -2.3657    0.2534   -0.0398 C.ar     1 ZINC000001546997   -0.2000
5      C5     -3.6226   -0.3055   -0.0309 C.ar     1 ZINC000001546997   -0.0200
6      C6     -3.7904   -1.6889   -0.0138 C.ar     1 ZINC000001546997   -0.0800
7      C7     -2.6586   -2.5126    0.0298 C.ar     1 ZINC000001546997    0.1500
8      O8     -2.8008   -3.8641    0.0745 O.3      1 ZINC000001546997   -0.3000
9      C9     -2.9831   -4.5389   -1.1719 C.3      1 ZINC000001546997    0.0400
10     C10    -1.3925   -1.9468    0.0214 C.ar     1 ZINC000001546997    0.0400
11     O11    -0.2921   -2.7467    0.0599 O.3      1 ZINC000001546997   -0.3100
12     C12     0.3194   -3.0696   -1.1906 C.3      1 ZINC000001546997    0.0300
13     C13    -5.1365   -2.2894   -0.0804 C.ar     1 ZINC000001546997   -0.0800
14     C14    -5.9866   -2.0270   -1.1529 C.ar     1 ZINC000001546997   -0.0200
15     C15    -7.2588   -2.5492   -1.1906 C.ar     1 ZINC000001546997   -0.2000
16     C16    -7.6989   -3.3759   -0.1647 C.ar     1 ZINC000001546997    0.1300
17     O17    -8.9552   -3.8953   -0.2006 O.3      1 ZINC000001546997   -0.3000
18     C18    -9.7686   -3.5488   -1.3232 C.3      1 ZINC000001546997    0.0200
19     C19    -6.8532   -3.6723    0.8988 C.ar     1 ZINC000001546997    0.0300
20     O20    -7.2801   -4.4951    1.8954 O.3      1 ZINC000001546997   -0.3200
21     C21    -6.9695   -5.8841    1.7676 C.3      1 ZINC000001546997    0.0400
22     C22    -5.5766   -3.1331    0.9476 C.ar     1 ZINC000001546997    0.1500
23     O23    -4.7537   -3.4231    1.9905 O.3      1 ZINC000001546997   -0.3100
24     C24    -4.8830   -2.6161    3.1627 C.3      1 ZINC000001546997    0.0400
25     C25    -5.4594   -1.1918   -2.3014 C.3      1 ZINC000001546997   -0.0800
26     C26    -6.0336    0.2216   -2.2096 C.3      1 ZINC000001546997   -0.0800
27     H27    -7.0051    0.1829   -1.7169 H        1 ZINC000001546997    0.0700
28     C28    -6.2067    0.7875   -3.6205 C.3      1 ZINC000001546997   -0.1500
29     C29    -5.1029    1.1329   -1.4144 C.3      1 ZINC000001546997   -0.0800
30     H30    -4.1507    1.2181   -1.9380 H        1 ZINC000001546997    0.0700
31     C31    -5.7375    2.5199   -1.2947 C.3      1 ZINC000001546997   -0.1500
32     C32    -4.8588    0.5699   -0.0148 C.3      1 ZINC000001546997   -0.0800
33     H33     1.1241    1.7185   -0.0798 H        1 ZINC000001546997    0.1000
34     H34    -0.4170    1.7794   -0.9684 H        1 ZINC000001546997    0.0600
35     H35    -0.4132    1.8259    0.8110 H        1 ZINC000001546997    0.0600
36     H36    -2.2516    1.3271   -0.0657 H        1 ZINC000001546997    0.1400
37     H37    -2.0845   -4.4296   -1.7791 H        1 ZINC000001546997    0.0400
38     H38    -3.1712   -5.5967   -0.9883 H        1 ZINC000001546997    0.1000
39     H39    -3.8328   -4.1049   -1.6990 H        1 ZINC000001546997    0.0500
40     H40     0.5642   -2.1506   -1.7233 H        1 ZINC000001546997    0.0500
41     H41     1.2308   -3.6403   -1.0128 H        1 ZINC000001546997    0.0900
42     H42    -0.3705   -3.6640   -1.7897 H        1 ZINC000001546997    0.0400
43     H43    -7.9145   -2.3165   -2.0165 H        1 ZINC000001546997    0.1400
44     H44   -10.7429   -4.0281   -1.2277 H        1 ZINC000001546997    0.1000
45     H45    -9.8978   -2.4671   -1.3583 H        1 ZINC000001546997    0.0600
46     H46    -9.2857   -3.8870   -2.2400 H        1 ZINC000001546997    0.0600
47     H47    -7.4398   -6.4378    2.5803 H        1 ZINC000001546997    0.0900
48     H48    -7.3429   -6.2535    0.8125 H        1 ZINC000001546997    0.0400
49     H49    -5.8890   -6.0204    1.8127 H        1 ZINC000001546997    0.0500
50     H50    -5.8669   -2.7728    3.6050 H        1 ZINC000001546997    0.0500
51     H51    -4.1128   -2.8943    3.8821 H        1 ZINC000001546997    0.0900
52     H52    -4.7680   -1.5657    2.8952 H        1 ZINC000001546997    0.0400
53     H53    -4.3717   -1.1462   -2.2481 H        1 ZINC000001546997    0.0800
54     H54    -5.7581   -1.6446   -3.2469 H        1 ZINC000001546997    0.0800
55     H55    -6.8884    0.1520   -4.1858 H        1 ZINC000001546997    0.0600
56     H56    -6.6162    1.7958   -3.5598 H        1 ZINC000001546997    0.0600
57     H57    -5.2390    0.8179   -4.1211 H        1 ZINC000001546997    0.0600
58     H58    -6.6955    2.4380   -0.7812 H        1 ZINC000001546997    0.0600
59     H59    -5.0760    3.1744   -0.7272 H        1 ZINC000001546997    0.0600
60     H60    -5.8933    2.9354   -2.2903 H        1 ZINC000001546997    0.0600
61     H61    -5.7199   -0.0231    0.2935 H        1 ZINC000001546997    0.0800
62     H62    -4.7133    1.3912    0.6870 H        1 ZINC000001546997    0.0800
@<TRIPOS>BOND
1     1     2     1
2     1     33    1
3     1     34    1
4     1     35    1
5     2     3     1
6     3     10    ar
7     3     4     ar
8     4     5     ar
9     4     36    1
10    5     32    1
11    5     6     ar
12    6     7     ar
13    6     13    1
14    7     8     1
15    7     10    ar
16    8     9     1
17    9     37    1
18    9     38    1
19    9     39    1
20    10    11    1
21    11    12    1
22    12    40    1
23    12    41    1
24    12    42    1
25    13    22    ar
26    13    14    ar
27    14    15    ar
28    14    25    1
29    15    16    ar
30    15    43    1
31    16    17    1
32    16    19    ar
33    17    18    1
34    18    44    1
35    18    45    1
36    18    46    1
37    19    20    1
38    19    22    ar
39    20    21    1
40    21    47    1
41    21    48    1
42    21    49    1
43    22    23    1
44    23    24    1
45    24    50    1
46    24    51    1
47    24    52    1
48    25    26    1
49    25    53    1
50    25    54    1
51    26    27    1
52    26    28    1
53    26    29    1
54    28    55    1
55    28    56    1
56    28    57    1
57    29    30    1
58    29    31    1
59    29    32    1
60    31    58    1
61    31    59    1
62    31    60    1
63    32    61    1
64    32    62    1
@<TRIPOS>SUBSTRUCTURE
1   ZINC000001546997 1     RESIDUE    1   A     ZIN   1
