@<TRIPOS>MOLECULE
ZINC000043195318
70    73    1     0     0
SMALL
USER_CHARGES
@<TRIPOS>ATOM
1      C1      0.3356    1.2069   -0.7552 C.3      1 ZINC000043195318   -0.1600
2      C2     -0.3167   -0.1392   -0.4334 C.3      1 ZINC000043195318   -0.0700
3      C3      0.0612   -0.5624    0.9875 C.3      1 ZINC000043195318   -0.1700
4      C4     -1.8373   -0.0071   -0.5388 C.3      1 ZINC000043195318   -0.1500
5      C5      0.1737   -1.1941   -1.4272 C.3      1 ZINC000043195318   -0.1500
6      C6      1.6924   -1.3382   -1.3100 C.3      1 ZINC000043195318    0.0600
7      H7      2.1721   -0.3609   -1.3642 H        1 ZINC000043195318    0.1700
8      N8      2.0531   -2.0247   -0.0402 N.4      1 ZINC000043195318   -0.5100
9      H9      2.0876   -1.3629    0.7207 H        1 ZINC000043195318    0.4400
10     H10     1.3931   -2.7605    0.1624 H        1 ZINC000043195318    0.4400
11     C11     3.4030   -2.5910   -0.2974 C.3      1 ZINC000043195318    0.0000
12     H12     4.1655   -1.8195   -0.1900 H        1 ZINC000043195318    0.1700
13     C13     3.6800   -3.7363    0.6421 C.2      1 ZINC000043195318    0.5100
14     O14     2.7631   -4.2871    1.2137 O.2      1 ZINC000043195318   -0.5100
15     N15     4.9467   -4.1486    0.8469 N.am     1 ZINC000043195318   -0.7000
16     C16     5.2160   -5.2620    1.7602 C.3      1 ZINC000043195318    0.1200
17     C17     6.7221   -5.5262    1.8121 C.3      1 ZINC000043195318   -0.1600
18     C18     7.0034   -6.6890    2.7659 C.3      1 ZINC000043195318    0.1100
19     H19     6.4200   -7.5579    2.4614 H        1 ZINC000043195318    0.1100
20     O20     6.6394   -6.3131    4.0956 O.3      1 ZINC000043195318   -0.5500
21     C21     8.4932   -7.0346    2.7233 C.3      1 ZINC000043195318    0.0400
22     O22     8.7365   -8.1932    3.5237 O.3      1 ZINC000043195318   -0.5600
23     C23     3.3445   -3.0914   -1.7591 C.3      1 ZINC000043195318   -0.0200
24     H24     3.0959   -4.1523   -1.7876 H        1 ZINC000043195318    0.1300
25     C25     4.6592   -2.8425   -2.4523 C.ar     1 ZINC000043195318   -0.0800
26     C26     5.4927   -1.8320   -2.0109 C.ar     1 ZINC000043195318   -0.1300
27     C27     6.6992   -1.6033   -2.6461 C.ar     1 ZINC000043195318   -0.0900
28     C28     7.0724   -2.3846   -3.7232 C.ar     1 ZINC000043195318   -0.0900
29     C29     6.2385   -3.3964   -4.1655 C.ar     1 ZINC000043195318   -0.0200
30     Cl30    6.7069   -4.3787   -5.5181 Cl       1 ZINC000043195318   -0.0400
31     C31     5.0340   -3.6284   -3.5260 C.ar     1 ZINC000043195318   -0.0900
32     C32     2.2300   -2.2611   -2.4116 C.3      1 ZINC000043195318   -0.0600
33     C33     1.1429   -3.1401   -2.9671 C.2      1 ZINC000043195318    0.5400
34     O34     0.4644   -3.9317   -2.3474 O.2      1 ZINC000043195318   -0.4600
35     N35     1.0692   -2.8775   -4.2862 N.am     1 ZINC000043195318   -0.6400
36     C36     1.9947   -1.9080   -4.6829 C.ar     1 ZINC000043195318    0.1600
37     C37     2.2508   -1.3535   -5.9340 C.ar     1 ZINC000043195318   -0.1000
38     C38     3.2316   -0.3928   -6.0810 C.ar     1 ZINC000043195318   -0.0300
39     Cl39    3.5426    0.2926   -7.6453 Cl       1 ZINC000043195318   -0.0100
40     C40     3.9682    0.0269   -4.9850 C.ar     1 ZINC000043195318    0.1000
41     F41     4.9263    0.9680   -5.1324 F        1 ZINC000043195318   -0.1100
42     C42     3.7188   -0.5216   -3.7373 C.ar     1 ZINC000043195318   -0.0800
43     C43     2.7417   -1.4802   -3.5890 C.ar     1 ZINC000043195318   -0.1200
44     H44     1.4190    1.1128   -0.6801 H        1 ZINC000043195318    0.0500
45     H45     0.0664    1.5083   -1.7674 H        1 ZINC000043195318    0.0700
46     H46    -0.0137    1.9584   -0.0472 H        1 ZINC000043195318    0.0700
47     H47    -0.5907   -0.0597    1.7019 H        1 ZINC000043195318    0.0900
48     H48    -0.0536   -1.6417    1.0878 H        1 ZINC000043195318    0.0600
49     H49     1.0973   -0.2873    1.1851 H        1 ZINC000043195318    0.0500
50     H50    -2.1066    0.2943   -1.5511 H        1 ZINC000043195318    0.0700
51     H51    -2.3021   -0.9661   -0.3095 H        1 ZINC000043195318    0.0600
52     H52    -2.1867    0.7444    0.1692 H        1 ZINC000043195318    0.0700
53     H53    -0.3001   -2.1503   -1.2053 H        1 ZINC000043195318    0.1100
54     H54    -0.0850   -0.8868   -2.4404 H        1 ZINC000043195318    0.1200
55     H55     5.6801   -3.7081    0.3897 H        1 ZINC000043195318    0.4100
56     H56     4.8569   -5.0087    2.7577 H        1 ZINC000043195318    0.0900
57     H57     4.7025   -6.1555    1.4051 H        1 ZINC000043195318    0.0800
58     H58     7.0812   -5.7794    0.8146 H        1 ZINC000043195318    0.0900
59     H59     7.2357   -4.6327    2.1672 H        1 ZINC000043195318    0.0800
60     H60     7.1203   -5.5448    4.4328 H        1 ZINC000043195318    0.3800
61     H61     8.7904   -7.2352    1.6940 H        1 ZINC000043195318    0.0600
62     H62     9.0719   -6.1966    3.1118 H        1 ZINC000043195318    0.0500
63     H63     9.6626   -8.4705    3.5430 H        1 ZINC000043195318    0.3900
64     H64     5.2011   -1.2207   -1.1697 H        1 ZINC000043195318    0.1300
65     H65     7.3500   -0.8136   -2.3008 H        1 ZINC000043195318    0.1500
66     H66     8.0146   -2.2054   -4.2197 H        1 ZINC000043195318    0.1400
67     H67     4.3827   -4.4179   -3.8708 H        1 ZINC000043195318    0.1400
68     H68     0.4465   -3.3110   -4.8906 H        1 ZINC000043195318    0.4300
69     H69     1.6806   -1.6761   -6.7926 H        1 ZINC000043195318    0.1600
70     H70     4.2910   -0.1970   -2.8807 H        1 ZINC000043195318    0.1500
@<TRIPOS>BOND
1     1     2     1
2     1     44    1
3     1     45    1
4     1     46    1
5     2     3     1
6     2     4     1
7     2     5     1
8     3     47    1
9     3     48    1
10    3     49    1
11    4     50    1
12    4     51    1
13    4     52    1
14    5     6     1
15    5     53    1
16    5     54    1
17    6     7     1
18    6     32    1
19    6     8     1
20    8     9     1
21    8     10    1
22    8     11    1
23    11    12    1
24    11    13    1
25    11    23    1
26    13    14    2
27    13    15    am
28    15    16    1
29    15    55    1
30    16    17    1
31    16    56    1
32    16    57    1
33    17    18    1
34    17    58    1
35    17    59    1
36    18    19    1
37    18    20    1
38    18    21    1
39    20    60    1
40    21    22    1
41    21    61    1
42    21    62    1
43    22    63    1
44    23    24    1
45    23    25    1
46    23    32    1
47    25    31    ar
48    25    26    ar
49    26    27    ar
50    26    64    1
51    27    28    ar
52    27    65    1
53    28    29    ar
54    28    66    1
55    29    30    1
56    29    31    ar
57    31    67    1
58    32    43    1
59    32    33    1
60    33    34    2
61    33    35    am
62    35    36    1
63    35    68    1
64    36    43    ar
65    36    37    ar
66    37    38    ar
67    37    69    1
68    38    39    1
69    38    40    ar
70    40    41    1
71    40    42    ar
72    42    43    ar
73    42    70    1
@<TRIPOS>SUBSTRUCTURE
1   ZINC000043195318 1     RESIDUE    1   A     ZIN   1
