@<TRIPOS>MOLECULE
ZINC000001532612
  32   31    0    0    0
SMALL
USER_CHARGES
NO_NAME
@<TRIPOS>ATOM
    1 N1       -0.0116     1.0048     0.0076 N.4    1 <0>      -0.6400
    2 H2        0.0021    -0.0041     0.0020 H      1 <0>       0.4400
    3 H3        0.9350     1.3541     0.0004 H      1 <0>       0.4400
    4 H4       -0.4996     1.3391    -0.8099 H      1 <0>       0.4500
    5 C5       -0.6992     1.4786     1.2162 C.3    1 <0>      -0.0100
    6 C6        0.0408     0.9717     2.4557 C.3    1 <0>      -0.1500
    7 C7       -0.6753     1.4652     3.7145 C.3    1 <0>      -0.1500
    8 C8        0.0647     0.9583     4.9540 C.3    1 <0>      -0.0100
    9 N9       -0.6229     1.4321     6.1627 N.4    1 <0>      -0.5100
   10 H10      -0.6366     2.4410     6.1682 H      1 <0>       0.4300
   11 H11      -1.5695     1.0828     6.1698 H      1 <0>       0.4300
   12 C12       0.0876     0.9454     7.3528 C.3    1 <0>       0.0000
   13 C13      -0.6286     1.4389     8.6116 C.3    1 <0>      -0.1900
   14 C14       0.1114     0.9320     9.8511 C.3    1 <0>       0.0000
   15 N15      -0.5762     1.4058    11.0597 N.4    1 <0>      -0.6400
   16 H16      -0.5899     2.4147    11.0653 H      1 <0>       0.4400
   17 H17      -1.5228     1.0565    11.0669 H      1 <0>       0.4400
   18 H18      -0.0882     1.0715    11.8771 H      1 <0>       0.4500
   19 H19      -0.7140     2.5685     1.2222 H      1 <0>       0.1400
   20 H20      -1.7218     1.1013     1.2239 H      1 <0>       0.1400
   21 H21       0.0556    -0.1181     2.4497 H      1 <0>       0.1000
   22 H22       1.0634     1.3490     2.4480 H      1 <0>       0.1000
   23 H23      -0.6901     2.5550     3.7205 H      1 <0>       0.1000
   24 H24      -1.6979     1.0879     3.7222 H      1 <0>       0.1000
   25 H25       0.0794    -0.1316     4.9480 H      1 <0>       0.1400
   26 H26       1.0873     1.3356     4.9463 H      1 <0>       0.1400
   27 H27       0.1023    -0.1444     7.3468 H      1 <0>       0.1500
   28 H28       1.1102     1.3227     7.3450 H      1 <0>       0.1500
   29 H29      -0.6434     2.5287     8.6176 H      1 <0>       0.1100
   30 H30      -1.6512     1.0616     8.6193 H      1 <0>       0.1100
   31 H31       0.1262    -0.1579     9.8451 H      1 <0>       0.1500
   32 H32       1.1340     1.3093     9.8434 H      1 <0>       0.1500
@<TRIPOS>BOND
   1    1    2 1
   2    1    3 1
   3    1    4 1
   4    1    5 1
   5    5    6 1
   6    5   19 1
   7    5   20 1
   8    6    7 1
   9    6   21 1
  10    6   22 1
  11    7    8 1
  12    7   23 1
  13    7   24 1
  14    8    9 1
  15    8   25 1
  16    8   26 1
  17    9   10 1
  18    9   11 1
  19    9   12 1
  20   12   13 1
  21   12   27 1
  22   12   28 1
  23   13   14 1
  24   13   29 1
  25   13   30 1
  26   14   15 1
  27   14   31 1
  28   14   32 1
  29   15   16 1
  30   15   17 1
  31   15   18 1
