@<TRIPOS>MOLECULE
ZINC000049695141
89    94    1     0     0
SMALL
USER_CHARGES
@<TRIPOS>ATOM
1      C1      1.3312    0.7705    2.2539 C.3      1 ZINC000049695141   -0.1500
2      C2      1.2703   -0.7110    1.8767 C.3      1 ZINC000049695141   -0.1200
3      C3      1.9923   -0.9284    0.5454 C.3      1 ZINC000049695141   -0.0500
4      C4      1.9323   -2.3877    0.1738 C.2      1 ZINC000049695141    0.3000
5      N5      2.8138   -3.2813    0.5184 N.2      1 ZINC000049695141   -0.4800
6      C6      2.4571   -4.4915    0.0196 C.ar     1 ZINC000049695141    0.0700
7      C7      3.0310   -5.7658    0.0857 C.ar     1 ZINC000049695141   -0.0300
8      C8      4.3187   -5.9731    0.8407 C.3      1 ZINC000049695141   -0.1100
9      C9      2.4267   -6.8199   -0.5316 C.ar     1 ZINC000049695141   -0.0900
10     C10     1.2299   -6.6407   -1.2365 C.ar     1 ZINC000049695141    0.0000
11     C11     0.5859   -7.7929   -1.9009 C.2      1 ZINC000049695141    0.3300
12     N12     0.8230   -9.0522   -1.6241 N.2      1 ZINC000049695141   -0.4800
13     C13     0.0629   -9.8442   -2.4192 C.ar     1 ZINC000049695141    0.0500
14     C14    -0.0764  -11.2303   -2.5422 C.ar     1 ZINC000049695141   -0.0600
15     C15    -0.9528  -11.7496   -3.4674 C.ar     1 ZINC000049695141   -0.1300
16     C16    -1.6996  -10.9089   -4.2802 C.ar     1 ZINC000049695141   -0.1000
17     C17    -1.5746   -9.5396   -4.1728 C.ar     1 ZINC000049695141   -0.1100
18     C18    -0.6970   -8.9969   -3.2454 C.ar     1 ZINC000049695141    0.0500
19     N19    -0.3525   -7.7057   -2.8941 N.pl3    1 ZINC000049695141   -0.4900
20     C20    -0.8881   -6.4736   -3.4783 C.3      1 ZINC000049695141    0.0700
21     C21     0.6451   -5.3787   -1.3121 C.ar     1 ZINC000049695141   -0.1100
22     C22     1.2546   -4.3044   -0.6864 C.ar     1 ZINC000049695141    0.0500
23     N23     0.9466   -2.9630   -0.5651 N.pl3    1 ZINC000049695141   -0.4800
24     C24    -0.2236   -2.2860   -1.1296 C.3      1 ZINC000049695141    0.1100
25     C25    -1.3738   -2.3298   -0.1216 C.3      1 ZINC000049695141    0.0400
26     O26    -2.5151   -1.6694   -0.6723 O.3      1 ZINC000049695141   -0.3100
27     C27    -3.6315   -1.6190    0.1011 C.ar     1 ZINC000049695141    0.1300
28     C28    -3.6267   -2.1883    1.3662 C.ar     1 ZINC000049695141   -0.2000
29     C29    -4.7626   -2.1352    2.1505 C.ar     1 ZINC000049695141   -0.0700
30     C30    -5.9039   -1.5158    1.6755 C.ar     1 ZINC000049695141   -0.1200
31     C31    -7.1418   -1.4599    2.5331 C.3      1 ZINC000049695141   -0.0600
32     C32    -7.1151   -0.1892    3.3848 C.3      1 ZINC000049695141    0.1400
33     C33    -8.3069   -0.1933    4.3443 C.3      1 ZINC000049695141   -0.1900
34     O34    -7.1925    0.9563    2.5340 O.3      1 ZINC000049695141   -0.2800
35     C35    -7.1630    2.1747    3.1354 C.ar     1 ZINC000049695141    0.1300
36     C36    -6.9638    2.2688    4.5051 C.ar     1 ZINC000049695141   -0.2200
37     C37    -6.9337    3.5084    5.1140 C.ar     1 ZINC000049695141   -0.0800
38     C38    -7.1024    4.6548    4.3595 C.ar     1 ZINC000049695141   -0.1500
39     C39    -7.3015    4.5636    2.9943 C.ar     1 ZINC000049695141   -0.0800
40     C40    -7.3263    3.3266    2.3798 C.ar     1 ZINC000049695141   -0.1500
41     C41    -5.8334   -0.1416    4.1760 C.2      1 ZINC000049695141    0.4500
42     O42    -5.8080   -0.5566    5.3105 O.2      1 ZINC000049695141   -0.5000
43     O43    -4.7200    0.3618    3.6204 O.3      1 ZINC000049695141   -0.3300
44     C44    -3.5222    0.3761    4.4410 C.3      1 ZINC000049695141    0.0600
45     C45    -2.3650    0.9811    3.6437 C.3      1 ZINC000049695141   -0.1500
46     C46    -5.9111   -0.9473    0.4151 C.ar     1 ZINC000049695141   -0.0500
47     C47    -4.7761   -0.9931   -0.3710 C.ar     1 ZINC000049695141   -0.1500
48     H48     2.3724    1.0783    2.3507 H        1 ZINC000049695141    0.0600
49     H49     0.8478    1.3633    1.4774 H        1 ZINC000049695141    0.0600
50     H50     0.8169    0.9254    3.2023 H        1 ZINC000049695141    0.0600
51     H51     1.7537   -1.3038    2.6532 H        1 ZINC000049695141    0.0700
52     H52     0.2292   -1.0188    1.7799 H        1 ZINC000049695141    0.0600
53     H53     1.5089   -0.3356   -0.2312 H        1 ZINC000049695141    0.0900
54     H54     3.0335   -0.6206    0.6422 H        1 ZINC000049695141    0.1100
55     H55     4.0955   -6.2190    1.8789 H        1 ZINC000049695141    0.0700
56     H56     4.8789   -6.7901    0.3862 H        1 ZINC000049695141    0.0700
57     H57     4.9129   -5.0600    0.8032 H        1 ZINC000049695141    0.0700
58     H58     2.8745   -7.8012   -0.4771 H        1 ZINC000049695141    0.1500
59     H59     0.5021  -11.8909   -1.9134 H        1 ZINC000049695141    0.1300
60     H60    -1.0599  -12.8201   -3.5618 H        1 ZINC000049695141    0.1300
61     H61    -2.3835  -11.3298   -5.0024 H        1 ZINC000049695141    0.1300
62     H62    -2.1590   -8.8913   -4.8088 H        1 ZINC000049695141    0.1200
63     H63    -1.7060   -6.1040   -2.8598 H        1 ZINC000049695141    0.0800
64     H64    -0.1003   -5.7218   -3.5261 H        1 ZINC000049695141    0.0900
65     H65    -1.2565   -6.6783   -4.4835 H        1 ZINC000049695141    0.0900
66     H66    -0.2776   -5.2391   -1.8557 H        1 ZINC000049695141    0.1300
67     H67     0.0278   -1.2483   -1.3491 H        1 ZINC000049695141    0.1100
68     H68    -0.5261   -2.7886   -2.0482 H        1 ZINC000049695141    0.1000
69     H69    -1.6252   -3.3675    0.0978 H        1 ZINC000049695141    0.0700
70     H70    -1.0712   -1.8272    0.7970 H        1 ZINC000049695141    0.0700
71     H71    -2.7357   -2.6728    1.7374 H        1 ZINC000049695141    0.1200
72     H72    -4.7594   -2.5783    3.1355 H        1 ZINC000049695141    0.1200
73     H73    -8.0256   -1.4512    1.8952 H        1 ZINC000049695141    0.1100
74     H74    -7.1724   -2.3333    3.1844 H        1 ZINC000049695141    0.1000
75     H75    -8.1941   -1.0074    5.0603 H        1 ZINC000049695141    0.0900
76     H76    -8.3473    0.7565    4.8776 H        1 ZINC000049695141    0.0900
77     H77    -9.2283   -0.3319    3.7787 H        1 ZINC000049695141    0.0900
78     H78    -6.8327    1.3736    5.0950 H        1 ZINC000049695141    0.1300
79     H79    -6.7786    3.5822    6.1802 H        1 ZINC000049695141    0.1200
80     H80    -7.0789    5.6230    4.8374 H        1 ZINC000049695141    0.1300
81     H81    -7.4334    5.4605    2.4072 H        1 ZINC000049695141    0.1300
82     H82    -7.4819    3.2559    1.3134 H        1 ZINC000049695141    0.1300
83     H83    -3.7007    0.9753    5.3339 H        1 ZINC000049695141    0.0700
84     H84    -3.2691   -0.6433    4.7321 H        1 ZINC000049695141    0.0700
85     H85    -2.1866    0.3819    2.7508 H        1 ZINC000049695141    0.0600
86     H86    -2.6181    2.0005    3.3526 H        1 ZINC000049695141    0.0700
87     H87    -1.4658    0.9918    4.2598 H        1 ZINC000049695141    0.0800
88     H88    -6.8036   -0.4638    0.0465 H        1 ZINC000049695141    0.1300
89     H89    -4.7822   -0.5489   -1.3554 H        1 ZINC000049695141    0.1300
@<TRIPOS>BOND
1     1     2     1
2     1     48    1
3     1     49    1
4     1     50    1
5     2     3     1
6     2     51    1
7     2     52    1
8     3     4     1
9     3     53    1
10    3     54    1
11    4     23    1
12    4     5     2
13    5     6     1
14    6     22    ar
15    6     7     ar
16    7     8     1
17    7     9     ar
18    8     55    1
19    8     56    1
20    8     57    1
21    9     10    ar
22    9     58    1
23    10    11    1
24    10    21    ar
25    11    19    1
26    11    12    2
27    12    13    1
28    13    18    ar
29    13    14    ar
30    14    15    ar
31    14    59    1
32    15    16    ar
33    15    60    1
34    16    17    ar
35    16    61    1
36    17    18    ar
37    17    62    1
38    18    19    1
39    19    20    1
40    20    63    1
41    20    64    1
42    20    65    1
43    21    22    ar
44    21    66    1
45    22    23    1
46    23    24    1
47    24    25    1
48    24    67    1
49    24    68    1
50    25    26    1
51    25    69    1
52    25    70    1
53    26    27    1
54    27    47    ar
55    27    28    ar
56    28    29    ar
57    28    71    1
58    29    30    ar
59    29    72    1
60    30    31    1
61    30    46    ar
62    31    32    1
63    31    73    1
64    31    74    1
65    32    33    1
66    32    34    1
67    32    41    1
68    33    75    1
69    33    76    1
70    33    77    1
71    34    35    1
72    35    40    ar
73    35    36    ar
74    36    37    ar
75    36    78    1
76    37    38    ar
77    37    79    1
78    38    39    ar
79    38    80    1
80    39    40    ar
81    39    81    1
82    40    82    1
83    41    42    2
84    41    43    1
85    43    44    1
86    44    45    1
87    44    83    1
88    44    84    1
89    45    85    1
90    45    86    1
91    45    87    1
92    46    47    ar
93    46    88    1
94    47    89    1
@<TRIPOS>SUBSTRUCTURE
1   ZINC000049695141 1     RESIDUE    1   A     ZIN   1
