@<TRIPOS>MOLECULE
ZINC000209632873
80    85    1     0     0
SMALL
USER_CHARGES
@<TRIPOS>ATOM
1      C1     -0.0181    1.5248    0.1080 C.3      1 ZINC000209632873    0.0200
2      O2     -0.0027    0.0960    0.0896 O.3      1 ZINC000209632873   -0.3000
3      C3      0.6226   -0.5280    1.1235 C.ar     1 ZINC000209632873    0.1300
4      C4      1.2031    0.2155    2.1356 C.ar     1 ZINC000209632873   -0.1700
5      C5      1.8406   -0.4171    3.1922 C.ar     1 ZINC000209632873   -0.0800
6      C6      1.8974   -1.7940    3.2393 C.ar     1 ZINC000209632873   -0.1300
7      C7      1.3188   -2.5437    2.2253 C.ar     1 ZINC000209632873   -0.1600
8      C8      0.6769   -1.9182    1.1717 C.ar     1 ZINC000209632873    0.1200
9      O9      0.1110   -2.6581    0.1809 O.3      1 ZINC000209632873   -0.3000
10     C10     0.2167   -4.0789    0.2911 C.3      1 ZINC000209632873    0.0200
11     C11     2.5720   -2.5202    4.3734 C.3      1 ZINC000209632873    0.0500
12     N12     3.4802   -1.6230    5.0933 N.4      1 ZINC000209632873   -0.3800
13     H13     4.2416   -1.3561    4.4875 H        1 ZINC000209632873    0.4300
14     C14     4.0121   -2.3091    6.2783 C.3      1 ZINC000209632873   -0.0100
15     C15     4.8777   -3.4912    5.8374 C.3      1 ZINC000209632873   -0.1000
16     C16     5.4234   -4.1951    7.0531 C.ar     1 ZINC000209632873   -0.1000
17     C17     6.6337   -3.8011    7.5934 C.ar     1 ZINC000209632873   -0.0900
18     C18     7.1366   -4.4447    8.7072 C.ar     1 ZINC000209632873   -0.1000
19     C19     6.4255   -5.4878    9.2846 C.ar     1 ZINC000209632873    0.1400
20     N20     6.9333   -6.1429   10.4159 N.pl3    1 ZINC000209632873   -0.2500
21     C21     6.3419   -7.1785   11.0721 C.2      1 ZINC000209632873   -0.0200
22     C22     7.1713   -7.4968   12.0935 C.2      1 ZINC000209632873   -0.0100
23     C23     6.9649   -8.5834   13.1171 C.3      1 ZINC000209632873    0.1500
24     O24     5.7319   -9.2566   12.8550 O.3      1 ZINC000209632873   -0.3200
25     C25     5.3928  -10.2722   13.6931 C.ar     1 ZINC000209632873    0.1000
26     C26     6.2251  -10.6095   14.7475 C.ar     1 ZINC000209632873   -0.1800
27     C27     5.8789  -11.6427   15.5990 C.ar     1 ZINC000209632873   -0.0900
28     C28     4.7027  -12.3416   15.4015 C.ar     1 ZINC000209632873   -0.1300
29     C29     3.8663  -12.0113   14.3516 C.ar     1 ZINC000209632873   -0.0900
30     C30     4.2040  -10.9725   13.4968 C.ar     1 ZINC000209632873    0.1200
31     N31     3.3582  -10.6356   12.4326 N.am     1 ZINC000209632873   -0.6600
32     C32     2.0440  -10.9272   12.4981 C.2      1 ZINC000209632873    0.5600
33     O33     1.5742  -11.3902   13.5193 O.2      1 ZINC000209632873   -0.5100
34     C34     1.1738  -10.6839   11.3283 C.ar     1 ZINC000209632873   -0.1400
35     C35     1.7111  -10.1577   10.1523 C.ar     1 ZINC000209632873   -0.0900
36     C36     0.8934   -9.9335    9.0640 C.ar     1 ZINC000209632873   -0.1300
37     C37    -0.4564  -10.2285    9.1365 C.ar     1 ZINC000209632873   -0.0900
38     C38    -0.9954  -10.7498   10.2993 C.ar     1 ZINC000209632873   -0.1200
39     C39    -0.1878  -10.9847   11.3928 C.ar     1 ZINC000209632873   -0.0500
40     N40     8.2104   -6.6578   12.0159 N.2      1 ZINC000209632873   -0.2300
41     N41     8.0425   -5.8731   11.0109 N.2      1 ZINC000209632873   -0.0700
42     C42     5.2104   -5.8809    8.7402 C.ar     1 ZINC000209632873   -0.1100
43     C43     4.7101   -5.2301    7.6294 C.ar     1 ZINC000209632873   -0.0800
44     C44     2.7380   -0.4230    5.5088 C.3      1 ZINC000209632873    0.0000
45     C45     2.4627    0.4323    4.2714 C.3      1 ZINC000209632873   -0.1000
46     H46     1.0055    1.8993    0.1002 H        1 ZINC000209632873    0.0600
47     H47    -0.5467    1.8938   -0.7710 H        1 ZINC000209632873    0.1100
48     H48    -0.5249    1.8711    1.0087 H        1 ZINC000209632873    0.0600
49     H49     1.1598    1.2941    2.1025 H        1 ZINC000209632873    0.1500
50     H50     1.3658   -3.6221    2.2611 H        1 ZINC000209632873    0.1500
51     H51    -0.2750   -4.5471   -0.5616 H        1 ZINC000209632873    0.1100
52     H52     1.2684   -4.3649    0.3060 H        1 ZINC000209632873    0.0600
53     H53    -0.2625   -4.4085    1.2129 H        1 ZINC000209632873    0.0600
54     H54     1.8143   -2.8931    5.0626 H        1 ZINC000209632873    0.1400
55     H55     3.1392   -3.3612    3.9747 H        1 ZINC000209632873    0.1400
56     H56     4.6165   -1.6134    6.8603 H        1 ZINC000209632873    0.1400
57     H57     3.1858   -2.6719    6.8895 H        1 ZINC000209632873    0.1300
58     H58     4.2734   -4.1870    5.2554 H        1 ZINC000209632873    0.1000
59     H59     5.7040   -3.1284    5.2262 H        1 ZINC000209632873    0.1000
60     H60     7.1865   -2.9895    7.1437 H        1 ZINC000209632873    0.1400
61     H61     8.0823   -4.1370    9.1283 H        1 ZINC000209632873    0.1500
62     H62     5.4016   -7.6501   10.8279 H        1 ZINC000209632873    0.2000
63     H63     7.7873   -9.2966   13.0608 H        1 ZINC000209632873    0.0900
64     H64     6.9336   -8.1428   14.1135 H        1 ZINC000209632873    0.0900
65     H65     7.1450  -10.0658   14.9044 H        1 ZINC000209632873    0.1400
66     H66     6.5294  -11.9045   16.4204 H        1 ZINC000209632873    0.1300
67     H67     4.4367  -13.1480   16.0689 H        1 ZINC000209632873    0.1300
68     H68     2.9480  -12.5590   14.1996 H        1 ZINC000209632873    0.1500
69     H69     3.7182  -10.1925   11.6485 H        1 ZINC000209632873    0.4100
70     H70     2.7644   -9.9263   10.0947 H        1 ZINC000209632873    0.1200
71     H71     1.3079   -9.5264    8.1535 H        1 ZINC000209632873    0.1300
72     H72    -1.0922  -10.0507    8.2818 H        1 ZINC000209632873    0.1300
73     H73    -2.0500  -10.9776   10.3494 H        1 ZINC000209632873    0.1300
74     H74    -0.6098  -11.3916   12.2998 H        1 ZINC000209632873    0.1400
75     H75     4.6550   -6.6921    9.1873 H        1 ZINC000209632873    0.1400
76     H76     3.7649   -5.5355    7.2054 H        1 ZINC000209632873    0.1400
77     H77     1.7942   -0.7171    5.9679 H        1 ZINC000209632873    0.1300
78     H78     3.3333    0.1467    6.2224 H        1 ZINC000209632873    0.1400
79     H79     3.3993    0.8536    3.9063 H        1 ZINC000209632873    0.1000
80     H80     1.7807    1.2410    4.5342 H        1 ZINC000209632873    0.1200
@<TRIPOS>BOND
1     1     2     1
2     1     46    1
3     1     47    1
4     1     48    1
5     2     3     1
6     3     8     ar
7     3     4     ar
8     4     5     ar
9     4     49    1
10    5     45    1
11    5     6     ar
12    6     7     ar
13    6     11    1
14    7     8     ar
15    7     50    1
16    8     9     1
17    9     10    1
18    10    51    1
19    10    52    1
20    10    53    1
21    11    12    1
22    11    54    1
23    11    55    1
24    12    13    1
25    12    14    1
26    12    44    1
27    14    15    1
28    14    56    1
29    14    57    1
30    15    16    1
31    15    58    1
32    15    59    1
33    16    43    ar
34    16    17    ar
35    17    18    ar
36    17    60    1
37    18    19    ar
38    18    61    1
39    19    20    1
40    19    42    ar
41    20    41    1
42    20    21    1
43    21    22    2
44    21    62    1
45    22    23    1
46    22    40    1
47    23    24    1
48    23    63    1
49    23    64    1
50    24    25    1
51    25    30    ar
52    25    26    ar
53    26    27    ar
54    26    65    1
55    27    28    ar
56    27    66    1
57    28    29    ar
58    28    67    1
59    29    30    ar
60    29    68    1
61    30    31    1
62    31    32    am
63    31    69    1
64    32    33    2
65    32    34    1
66    34    39    ar
67    34    35    ar
68    35    36    ar
69    35    70    1
70    36    37    ar
71    36    71    1
72    37    38    ar
73    37    72    1
74    38    39    ar
75    38    73    1
76    39    74    1
77    40    41    2
78    42    43    ar
79    42    75    1
80    43    76    1
81    44    45    1
82    44    77    1
83    44    78    1
84    45    79    1
85    45    80    1
@<TRIPOS>SUBSTRUCTURE
1   ZINC000209632873 1     RESIDUE    1   A     ZIN   1
