@<TRIPOS>MOLECULE
ZINC000514251193
65    68    1     0     0
SMALL
USER_CHARGES
@<TRIPOS>ATOM
1      C1     -0.0192    0.9278   -0.6698 C.3      1 ZINC000514251193   -0.1300
2      C2     -0.9442    0.8981    0.5195 C.2      1 ZINC000514251193    0.0200
3      C3     -1.9927    1.7558    0.6041 C.2      1 ZINC000514251193   -0.2200
4      C4     -2.8520    1.7198    1.7212 C.2      1 ZINC000514251193    0.5400
5      O5     -3.7875    2.4995    1.7764 O.2      1 ZINC000514251193   -0.5400
6      N6     -2.6661    0.8471    2.7269 N.am     1 ZINC000514251193   -0.5200
7      C7     -3.5885    0.8499    3.8650 C.3      1 ZINC000514251193    0.0600
8      C8     -1.6197   -0.0511    2.7021 C.ar     1 ZINC000514251193    0.2000
9      C9     -1.4287   -0.9523    3.7406 C.ar     1 ZINC000514251193   -0.1600
10     C10    -0.3691   -1.8441    3.6897 C.ar     1 ZINC000514251193    0.2000
11     N11    -0.1764   -2.7504    4.7333 N.am     1 ZINC000514251193   -0.5600
12     C12    -0.3206   -4.0493    4.4677 C.2      1 ZINC000514251193    0.5200
13     O13    -0.6506   -4.3726    3.3464 O.2      1 ZINC000514251193   -0.5200
14     C14    -0.0957   -5.1330    5.4827 C.3      1 ZINC000514251193   -0.1300
15     C15    -0.1219   -4.5390    6.8932 C.3      1 ZINC000514251193   -0.1500
16     C16     0.7926   -3.3084    6.9180 C.3      1 ZINC000514251193    0.1500
17     H17     1.7743   -3.5743    6.5261 H        1 ZINC000514251193    0.1000
18     N18     0.9274   -2.8238    8.2939 N.am     1 ZINC000514251193   -1.1100
19     S19     2.2137   -3.3054    9.2191 S.o2     1 ZINC000514251193    2.6100
20     O20     2.0012   -2.6704   10.4724 O.2      1 ZINC000514251193   -0.9500
21     O21     2.2155   -4.7219    9.1064 O.2      1 ZINC000514251193   -0.9400
22     C22     3.6611   -2.5986    8.3848 C.3      1 ZINC000514251193   -0.6200
23     C23     4.9285   -2.9779    9.1533 C.3      1 ZINC000514251193   -0.0800
24     C24     5.1269   -4.4938    9.0933 C.3      1 ZINC000514251193   -0.1800
25     C25     6.1354   -2.2803    8.5227 C.3      1 ZINC000514251193   -0.1400
26     C26     0.1756   -2.2184    6.0438 C.3      1 ZINC000514251193    0.1800
27     H27    -0.7253   -1.8375    6.5249 H        1 ZINC000514251193    0.1000
28     C28     1.1649   -1.0937    5.8776 C.ar     1 ZINC000514251193   -0.1100
29     C29     2.2850   -1.2701    5.0868 C.ar     1 ZINC000514251193   -0.0900
30     C30     3.1927   -0.2390    4.9340 C.ar     1 ZINC000514251193   -0.1100
31     C31     2.9800    0.9698    5.5726 C.ar     1 ZINC000514251193   -0.0200
32     Cl32    4.1193    2.2655    5.3807 Cl       1 ZINC000514251193   -0.0600
33     C33     1.8588    1.1457    6.3638 C.ar     1 ZINC000514251193   -0.1100
34     C34     0.9489    0.1157    6.5114 C.ar     1 ZINC000514251193   -0.0900
35     C35     0.5062   -1.8435    2.6031 C.ar     1 ZINC000514251193   -0.1300
36     C36     0.3326   -0.9645    1.5745 C.ar     1 ZINC000514251193   -0.0400
37     C37    -0.7352   -0.0596    1.6049 C.ar     1 ZINC000514251193   -0.1200
38     H38    -0.3966    0.2556   -1.4404 H        1 ZINC000514251193    0.0900
39     H39     0.0313    1.9422   -1.0655 H        1 ZINC000514251193    0.0800
40     H40     0.9766    0.6071   -0.3638 H        1 ZINC000514251193    0.0800
41     H41    -2.1692    2.4691   -0.1874 H        1 ZINC000514251193    0.1500
42     H42    -4.3470    1.6183    3.7161 H        1 ZINC000514251193    0.1000
43     H43    -4.0696   -0.1249    3.9451 H        1 ZINC000514251193    0.0700
44     H44    -3.0351    1.0582    4.7807 H        1 ZINC000514251193    0.0700
45     H45    -2.1025   -0.9582    4.5846 H        1 ZINC000514251193    0.1400
46     H46    -0.8809   -5.8834    5.3912 H        1 ZINC000514251193    0.1100
47     H47     0.8727   -5.6005    5.3047 H        1 ZINC000514251193    0.1100
48     H48    -1.1399   -4.2449    7.1487 H        1 ZINC000514251193    0.0800
49     H49     0.2377   -5.2779    7.6093 H        1 ZINC000514251193    0.1100
50     H50     0.2632   -2.2209    8.6631 H        1 ZINC000514251193    0.4200
51     H51     3.7216   -2.9891    7.3689 H        1 ZINC000514251193    0.1300
52     H52     3.5674   -1.5131    8.3517 H        1 ZINC000514251193    0.1400
53     H53     4.8303   -2.6652   10.1929 H        1 ZINC000514251193    0.0800
54     H54     6.0298   -4.7640    9.6409 H        1 ZINC000514251193    0.0700
55     H55     4.2671   -4.9908    9.5426 H        1 ZINC000514251193    0.0700
56     H56     5.2251   -4.8065    8.0538 H        1 ZINC000514251193    0.0700
57     H57     5.9941   -1.2003    8.5654 H        1 ZINC000514251193    0.0600
58     H58     7.0383   -2.5505    9.0703 H        1 ZINC000514251193    0.0600
59     H59     6.2336   -2.5930    7.4832 H        1 ZINC000514251193    0.0600
60     H60     2.4511   -2.2138    4.5887 H        1 ZINC000514251193    0.1300
61     H61     4.0679   -0.3770    4.3165 H        1 ZINC000514251193    0.1400
62     H62     1.6924    2.0889    6.8628 H        1 ZINC000514251193    0.1400
63     H63     0.0735    0.2530    7.1287 H        1 ZINC000514251193    0.1400
64     H64     1.3278   -2.5440    2.5764 H        1 ZINC000514251193    0.1300
65     H65     1.0142   -0.9699    0.7367 H        1 ZINC000514251193    0.1400
@<TRIPOS>BOND
1     1     2     1
2     1     38    1
3     1     39    1
4     1     40    1
5     2     37    1
6     2     3     2
7     3     4     1
8     3     41    1
9     4     5     2
10    4     6     am
11    6     7     1
12    6     8     1
13    7     42    1
14    7     43    1
15    7     44    1
16    8     37    ar
17    8     9     ar
18    9     10    ar
19    9     45    1
20    10    11    1
21    10    35    ar
22    11    26    1
23    11    12    am
24    12    13    2
25    12    14    1
26    14    15    1
27    14    46    1
28    14    47    1
29    15    16    1
30    15    48    1
31    15    49    1
32    16    17    1
33    16    18    1
34    16    26    1
35    18    19    am
36    18    50    1
37    19    20    2
38    19    21    2
39    19    22    1
40    22    23    1
41    22    51    1
42    22    52    1
43    23    24    1
44    23    25    1
45    23    53    1
46    24    54    1
47    24    55    1
48    24    56    1
49    25    57    1
50    25    58    1
51    25    59    1
52    26    27    1
53    26    28    1
54    28    34    ar
55    28    29    ar
56    29    30    ar
57    29    60    1
58    30    31    ar
59    30    61    1
60    31    32    1
61    31    33    ar
62    33    34    ar
63    33    62    1
64    34    63    1
65    35    36    ar
66    35    64    1
67    36    37    ar
68    36    65    1
@<TRIPOS>SUBSTRUCTURE
1   ZINC000514251193 1     RESIDUE    1   A     ZIN   1
