@<TRIPOS>MOLECULE
ZINC000070466463
50    52    1     0     0
SMALL
USER_CHARGES
@<TRIPOS>ATOM
1      C1      2.9141    0.8810   -0.5025 C.3      1 ZINC000070466463   -0.1000
2      C2      2.2916   -0.4891   -0.4222 C.ar     1 ZINC000070466463    0.0500
3      C3      2.3194   -1.1900    0.7685 C.ar     1 ZINC000070466463    0.0900
4      N4      1.7739   -2.3921    0.8432 N.ar     1 ZINC000070466463   -0.4300
5      C5      1.1995   -2.9255   -0.2264 C.ar     1 ZINC000070466463    0.3100
6      N6      0.6231   -4.1923   -0.1514 N.am     1 ZINC000070466463   -0.6600
7      C7      0.7377   -4.9190    0.9778 C.2      1 ZINC000070466463    0.6900
8      O8      1.2635   -4.4350    1.9615 O.2      1 ZINC000070466463   -0.5000
9      N9      0.2694   -6.1822    1.0167 N.am     1 ZINC000070466463   -0.6700
10     C10     0.2808   -6.8970    2.2222 C.ar     1 ZINC000070466463    0.1500
11     C11     0.2691   -6.2195    3.4321 C.ar     1 ZINC000070466463   -0.0600
12     C12     0.2799   -6.9272    4.6206 C.ar     1 ZINC000070466463   -0.1000
13     Br13    0.2632   -6.0021    6.2697 Br       1 ZINC000070466463   -0.0300
14     C14     0.3023   -8.3100    4.6053 C.ar     1 ZINC000070466463   -0.0300
15     C15     0.3135   -9.0760    5.9031 C.3      1 ZINC000070466463   -0.1300
16     C16     0.3141   -8.9916    3.4020 C.ar     1 ZINC000070466463   -0.1800
17     C17     0.2981   -8.2900    2.2080 C.ar     1 ZINC000070466463    0.1100
18     O18     0.3097   -8.9593    1.0242 O.3      1 ZINC000070466463   -0.3000
19     C19     0.3385  -10.3867    1.0861 C.3      1 ZINC000070466463    0.0700
20     C20     0.3477  -10.9587   -0.3329 C.3      1 ZINC000070466463    0.0700
21     H21    -0.5029  -10.5652   -0.8895 H        1 ZINC000070466463    0.1000
22     C22     0.2550  -12.4852   -0.2693 C.3      1 ZINC000070466463   -0.0400
23     N23     0.3226  -13.0349   -1.6304 N.4      1 ZINC000070466463   -0.5000
24     H24     0.2615  -14.0412   -1.5902 H        1 ZINC000070466463    0.4400
25     H25    -0.4437  -12.6728   -2.1779 H        1 ZINC000070466463    0.4300
26     C26     1.5959  -12.6457   -2.2519 C.3      1 ZINC000070466463   -0.0500
27     C27     1.6861  -11.1189   -2.3118 C.3      1 ZINC000070466463    0.0300
28     O28     1.5622  -10.5861   -0.9902 O.3      1 ZINC000070466463   -0.3400
29     C29     1.1733   -2.2165   -1.4246 C.ar     1 ZINC000070466463    0.0300
30     N30     1.7153   -1.0152   -1.4900 N.ar     1 ZINC000070466463   -0.4100
31     H31     2.1688    1.6343   -0.2471 H        1 ZINC000070466463    0.0800
32     H32     3.7478    0.9429    0.1970 H        1 ZINC000070466463    0.0800
33     H33     3.2760    1.0569   -1.5156 H        1 ZINC000070466463    0.0800
34     H34     2.7876   -0.7553    1.6393 H        1 ZINC000070466463    0.1800
35     H35     0.1395   -4.5509   -0.9120 H        1 ZINC000070466463    0.4200
36     H36    -0.0755   -6.5966    0.2104 H        1 ZINC000070466463    0.4100
37     H37     0.2519   -5.1398    3.4465 H        1 ZINC000070466463    0.1700
38     H38    -0.7113   -9.2773    6.2150 H        1 ZINC000070466463    0.0800
39     H39     0.8429  -10.0186    5.7641 H        1 ZINC000070466463    0.0700
40     H40     0.8171   -8.4859    6.6688 H        1 ZINC000070466463    0.0800
41     H41     0.3317  -10.0714    3.3934 H        1 ZINC000070466463    0.1400
42     H42     1.2360  -10.7094    1.6138 H        1 ZINC000070466463    0.0900
43     H43    -0.5436  -10.7452    1.6167 H        1 ZINC000070466463    0.0900
44     H44     1.0834  -12.8755    0.3220 H        1 ZINC000070466463    0.1500
45     H45    -0.6893  -12.7733    0.1927 H        1 ZINC000070466463    0.1500
46     H46     2.4238  -13.0359   -1.6599 H        1 ZINC000070466463    0.1400
47     H47     1.6471  -13.0529   -3.2617 H        1 ZINC000070466463    0.1500
48     H48     2.6482  -10.8273   -2.7331 H        1 ZINC000070466463    0.1400
49     H49     0.8818  -10.7310   -2.9368 H        1 ZINC000070466463    0.0800
50     H50     0.7064   -2.6475   -2.2979 H        1 ZINC000070466463    0.1700
@<TRIPOS>BOND
1     1     2     1
2     1     31    1
3     1     32    1
4     1     33    1
5     2     30    ar
6     2     3     ar
7     3     4     ar
8     3     34    1
9     4     5     ar
10    5     6     1
11    5     29    ar
12    6     7     am
13    6     35    1
14    7     8     2
15    7     9     am
16    9     10    1
17    9     36    1
18    10    17    ar
19    10    11    ar
20    11    12    ar
21    11    37    1
22    12    13    1
23    12    14    ar
24    14    15    1
25    14    16    ar
26    15    38    1
27    15    39    1
28    15    40    1
29    16    17    ar
30    16    41    1
31    17    18    1
32    18    19    1
33    19    20    1
34    19    42    1
35    19    43    1
36    20    21    1
37    20    28    1
38    20    22    1
39    22    23    1
40    22    44    1
41    22    45    1
42    23    24    1
43    23    25    1
44    23    26    1
45    26    27    1
46    26    46    1
47    26    47    1
48    27    28    1
49    27    48    1
50    27    49    1
51    29    30    ar
52    29    50    1
@<TRIPOS>SUBSTRUCTURE
1   ZINC000070466463 1     RESIDUE    1   A     ZIN   1
