@<TRIPOS>MOLECULE
ZINC000018185774
30    32    1     0     0
SMALL
USER_CHARGES
@<TRIPOS>ATOM
1      O1      0.0021   -0.0041    0.0020 O.2      1 ZINC000018185774   -0.5000
2      C2     -0.0145    1.2162    0.0087 C.2      1 ZINC000018185774    0.4300
3      C3     -1.2333    1.9348    0.0302 C.2      1 ZINC000018185774   -0.3100
4      C4     -1.2100    3.2948    0.0369 C.2      1 ZINC000018185774    0.1800
5      C5     -2.4908    4.0261    0.0594 C.ar     1 ZINC000018185774   -0.0500
6      C6     -3.6981    3.3232    0.0790 C.ar     1 ZINC000018185774   -0.0800
7      C7     -4.8942    4.0083    0.0999 C.ar     1 ZINC000018185774   -0.1300
8      C8     -4.9028    5.3960    0.1015 C.ar     1 ZINC000018185774    0.0900
9      O9     -6.0841    6.0663    0.1222 O.3      1 ZINC000018185774   -0.4900
10     C10    -3.7017    6.1039    0.0824 C.ar     1 ZINC000018185774    0.0800
11     O11    -3.7138    7.4638    0.0845 O.3      1 ZINC000018185774   -0.4800
12     C12    -2.4995    5.4241    0.0668 C.ar     1 ZINC000018185774   -0.0900
13     O13    -0.0658    3.9971    0.0244 O.3      1 ZINC000018185774   -0.2300
14     C14     1.1455    3.4014    0.0039 C.ar     1 ZINC000018185774    0.1900
15     C15     2.3074    4.1567   -0.0084 C.ar     1 ZINC000018185774   -0.2900
16     C16     3.5433    3.5285   -0.0300 C.ar     1 ZINC000018185774    0.3300
17     O17     4.6768    4.2755   -0.0424 O.3      1 ZINC000018185774   -0.6900
18     C18     3.6330    2.1411   -0.0387 C.ar     1 ZINC000018185774   -0.2900
19     C19     2.4847    1.3706   -0.0262 C.ar     1 ZINC000018185774    0.2200
20     O20     2.5700    0.0162   -0.0342 O.3      1 ZINC000018185774   -0.4900
21     C21     1.2334    1.9984    0.0010 C.ar     1 ZINC000018185774   -0.3700
22     H22    -2.1755    1.4071    0.0408 H        1 ZINC000018185774    0.1500
23     H23    -3.6944    2.2432    0.0775 H        1 ZINC000018185774    0.1400
24     H24    -5.8268    3.4638    0.1148 H        1 ZINC000018185774    0.1400
25     H25    -6.4113    6.2595    1.0114 H        1 ZINC000018185774    0.3900
26     H26    -3.7026    7.8559    0.9684 H        1 ZINC000018185774    0.3900
27     H27    -1.5684    5.9712    0.0524 H        1 ZINC000018185774    0.1500
28     H28     2.2501    5.2351   -0.0015 H        1 ZINC000018185774    0.1200
29     H29     4.6018    1.6640   -0.0556 H        1 ZINC000018185774    0.1200
30     H30     2.6074   -0.3807    0.8468 H        1 ZINC000018185774    0.3800
@<TRIPOS>BOND
1     1     2     2
2     2     21    1
3     2     3     1
4     3     4     2
5     3     22    1
6     4     5     1
7     4     13    1
8     5     12    ar
9     5     6     ar
10    6     7     ar
11    6     23    1
12    7     8     ar
13    7     24    1
14    8     9     1
15    8     10    ar
16    9     25    1
17    10    11    1
18    10    12    ar
19    11    26    1
20    12    27    1
21    13    14    1
22    14    21    ar
23    14    15    ar
24    15    16    ar
25    15    28    1
26    16    17    1
27    16    18    ar
28    18    19    ar
29    18    29    1
30    19    20    1
31    19    21    ar
32    20    30    1
@<TRIPOS>SUBSTRUCTURE
1   ZINC000018185774 1     RESIDUE    1   A     ZIN   1
