@<TRIPOS>MOLECULE
ZINC000013834661
48    51    1     0     0
SMALL
USER_CHARGES
@<TRIPOS>ATOM
1      C1      0.1739    1.4896    0.8145 C.3      1 ZINC000013834661    0.0300
2      N2      0.1603    0.0260    0.6895 N.3      1 ZINC000013834661   -0.5300
3      C3      0.4011   -0.3858   -0.6993 C.3      1 ZINC000013834661    0.0600
4      C4      0.2360   -1.9025   -0.8190 C.3      1 ZINC000013834661   -0.1200
5      C5      1.2298   -2.5947    0.1179 C.3      1 ZINC000013834661    0.0000
6      H6      2.2476   -2.3474   -0.1838 H        1 ZINC000013834661    0.0600
7      C7      1.0323   -4.0870    0.0480 C.2      1 ZINC000013834661   -0.1900
8      C8      2.1133   -4.9187   -0.1702 C.2      1 ZINC000013834661    0.1300
9      O9      3.3535   -4.4059   -0.3226 O.3      1 ZINC000013834661   -0.2000
10     C10     4.4147   -5.1992   -0.5348 C.2      1 ZINC000013834661    0.0700
11     S11     6.0087   -4.4731   -0.7262 S.3      1 ZINC000013834661    0.1100
12     C12     6.2486   -3.8295    0.8964 C.ar     1 ZINC000013834661   -0.1100
13     C13     5.3268   -4.1052    1.8978 C.ar     1 ZINC000013834661   -0.1000
14     C14     5.5177   -3.5990    3.1689 C.ar     1 ZINC000013834661   -0.0900
15     C15     6.6250   -2.8185    3.4453 C.ar     1 ZINC000013834661   -0.1000
16     C16     7.5455   -2.5410    2.4508 C.ar     1 ZINC000013834661   -0.1000
17     C17     7.3642   -3.0490    1.1787 C.ar     1 ZINC000013834661   -0.0200
18     Cl18    8.5196   -2.7006   -0.0692 Cl       1 ZINC000013834661   -0.0500
19     C19     4.2849   -6.5730   -0.6062 C.2      1 ZINC000013834661   -0.2300
20     C20     3.0315   -7.1579   -0.4566 C.2      1 ZINC000013834661    0.2200
21     O21     2.8817   -8.4998   -0.5228 O.3      1 ZINC000013834661   -0.4000
22     C22     1.9163   -6.3142   -0.2333 C.2      1 ZINC000013834661   -0.1700
23     C23     0.6246   -6.8533   -0.0744 C.2      1 ZINC000013834661    0.3200
24     O24     0.4358   -8.1958   -0.1342 O.3      1 ZINC000013834661   -0.6700
25     C25    -0.4374   -6.0215    0.1405 C.2      1 ZINC000013834661   -0.4300
26     C26    -0.2454   -4.6332    0.2097 C.2      1 ZINC000013834661    0.3600
27     O27    -1.2895   -3.8284    0.4205 O.2      1 ZINC000013834661   -0.5900
28     C28     0.9894   -2.1119    1.5510 C.3      1 ZINC000013834661    0.1200
29     H29     1.7217   -2.5688    2.2166 H        1 ZINC000013834661    0.0400
30     O30    -0.3275   -2.4821    1.9645 O.3      1 ZINC000013834661   -0.4900
31     C31     1.1326   -0.5891    1.6019 C.3      1 ZINC000013834661    0.0300
32     H32     1.1677    1.8658    0.5716 H        1 ZINC000013834661    0.0200
33     H33    -0.5553    1.9198    0.1279 H        1 ZINC000013834661    0.0700
34     H34    -0.0806    1.7694    1.8368 H        1 ZINC000013834661    0.0600
35     H35    -0.3150    0.1103   -1.3546 H        1 ZINC000013834661    0.0700
36     H36     1.4136   -0.1066   -0.9906 H        1 ZINC000013834661    0.0200
37     H37    -0.7806   -2.1810   -0.5411 H        1 ZINC000013834661    0.1300
38     H38     0.4301   -2.2097   -1.8466 H        1 ZINC000013834661    0.0500
39     H39     4.4613   -4.7144    1.6830 H        1 ZINC000013834661    0.1300
40     H40     4.8008   -3.8130    3.9478 H        1 ZINC000013834661    0.1400
41     H41     6.7715   -2.4243    4.4400 H        1 ZINC000013834661    0.1400
42     H42     8.4089   -1.9305    2.6699 H        1 ZINC000013834661    0.1400
43     H43     5.1539   -7.1909   -0.7779 H        1 ZINC000013834661    0.1600
44     H44     3.7062   -8.9804   -0.6784 H        1 ZINC000013834661    0.3800
45     H45    -1.4280   -6.4342    0.2624 H        1 ZINC000013834661    0.1000
46     H46    -0.5487   -2.2075    2.8649 H        1 ZINC000013834661    0.3400
47     H47     2.1418   -0.3090    1.2999 H        1 ZINC000013834661    0.0300
48     H48     0.9479   -0.2408    2.6181 H        1 ZINC000013834661    0.0700
@<TRIPOS>BOND
1     1     2     1
2     1     32    1
3     1     33    1
4     1     34    1
5     2     31    1
6     2     3     1
7     3     4     1
8     3     35    1
9     3     36    1
10    4     5     1
11    4     37    1
12    4     38    1
13    5     6     1
14    5     7     1
15    5     28    1
16    7     26    1
17    7     8     2
18    8     22    1
19    8     9     1
20    9     10    1
21    10    11    1
22    10    19    2
23    11    12    1
24    12    17    ar
25    12    13    ar
26    13    14    ar
27    13    39    1
28    14    15    ar
29    14    40    1
30    15    16    ar
31    15    41    1
32    16    17    ar
33    16    42    1
34    17    18    1
35    19    20    1
36    19    43    1
37    20    21    1
38    20    22    2
39    21    44    1
40    22    23    1
41    23    24    1
42    23    25    2
43    25    26    1
44    25    45    1
45    26    27    2
46    28    29    1
47    28    30    1
48    28    31    1
49    30    46    1
50    31    47    1
51    31    48    1
@<TRIPOS>SUBSTRUCTURE
1   ZINC000013834661 1     RESIDUE    1   A     ZIN   1
