@<TRIPOS>MOLECULE
ZINC000013489183
51    53    1     0     0
SMALL
USER_CHARGES
@<TRIPOS>ATOM
1      C1     -0.1436    1.5509   -0.1156 C.3      1 ZINC000013489183    0.0900
2      N2     -0.1005    0.0866   -0.1121 N.pl3    1 ZINC000013489183   -0.6300
3      C3      1.1889   -0.6084   -0.1363 C.3      1 ZINC000013489183    0.0900
4      C4     -1.2871   -0.6459   -0.0858 C.ar     1 ZINC000013489183    0.2300
5      C5     -1.2448   -2.0358   -0.0767 C.ar     1 ZINC000013489183   -0.2100
6      C6     -2.4159   -2.7617   -0.0502 C.ar     1 ZINC000013489183   -0.0300
7      C7     -3.6443   -2.1012   -0.0325 C.ar     1 ZINC000013489183   -0.1200
8      C8     -4.9052   -2.8796   -0.0035 C.ar     1 ZINC000013489183    0.2000
9      N9     -4.8465   -4.2127    0.0109 N.ar     1 ZINC000013489183   -0.5100
10     C10    -5.9275   -4.9669    0.0373 C.ar     1 ZINC000013489183    0.3400
11     N11    -5.8093   -6.3449    0.0517 N.3      1 ZINC000013489183   -0.4900
12     C12    -5.2013   -6.8341   -1.1929 C.3      1 ZINC000013489183    0.0200
13     C13    -5.0460   -6.7956    1.2231 C.3      1 ZINC000013489183    0.0600
14     C14    -5.1466   -8.3176    1.3426 C.3      1 ZINC000013489183   -0.1500
15     C15    -4.3517   -8.7870    2.5627 C.3      1 ZINC000013489183   -0.0100
16     N16    -4.4483  -10.2483    2.6774 N.4      1 ZINC000013489183   -0.6400
17     H17    -3.9240  -10.5579    3.4821 H        1 ZINC000013489183    0.4400
18     H18    -5.4158  -10.5141    2.7838 H        1 ZINC000013489183    0.4400
19     H19    -4.0713  -10.6767    1.8453 H        1 ZINC000013489183    0.4400
20     C20    -7.2066   -4.3674    0.0513 C.ar     1 ZINC000013489183   -0.1500
21     C21    -8.3831   -5.1298    0.0798 C.ar     1 ZINC000013489183   -0.0200
22     C22    -9.5805   -4.4669    0.0921 C.ar     1 ZINC000013489183   -0.1900
23     C23    -9.6063   -3.0757    0.0764 C.ar     1 ZINC000013489183    0.1600
24     N24    -8.5025   -2.3650    0.0497 N.ar     1 ZINC000013489183   -0.4800
25     C25    -7.3042   -2.9523    0.0365 C.ar     1 ZINC000013489183    0.1700
26     C26    -6.1126   -2.2064    0.0138 C.ar     1 ZINC000013489183   -0.1400
27     C27    -3.6842   -0.7070   -0.0416 C.ar     1 ZINC000013489183   -0.0400
28     C28    -2.5104    0.0147   -0.0628 C.ar     1 ZINC000013489183   -0.2000
29     H29     0.8727    1.9443   -0.1375 H        1 ZINC000013489183    0.0800
30     H30    -0.6860    1.8963   -0.9958 H        1 ZINC000013489183    0.0600
31     H31    -0.6497    1.9017    0.7838 H        1 ZINC000013489183    0.0600
32     H32     1.5297   -0.7776    0.8851 H        1 ZINC000013489183    0.0500
33     H33     1.0763   -1.5657   -0.6451 H        1 ZINC000013489183    0.0700
34     H34     1.9203    0.0012   -0.6670 H        1 ZINC000013489183    0.0700
35     H35    -0.2935   -2.5469   -0.0907 H        1 ZINC000013489183    0.1300
36     H36    -2.3827   -3.8412   -0.0434 H        1 ZINC000013489183    0.1300
37     H37    -4.1700   -6.4864   -1.2546 H        1 ZINC000013489183    0.0500
38     H38    -5.2184   -7.9239   -1.2017 H        1 ZINC000013489183    0.0800
39     H39    -5.7642   -6.4549   -2.0458 H        1 ZINC000013489183    0.0800
40     H40    -4.0008   -6.5084    1.1082 H        1 ZINC000013489183    0.0600
41     H41    -5.4532   -6.3328    2.1221 H        1 ZINC000013489183    0.0800
42     H42    -6.1918   -8.6047    1.4575 H        1 ZINC000013489183    0.1000
43     H43    -4.7394   -8.7803    0.4436 H        1 ZINC000013489183    0.0900
44     H44    -3.3065   -8.4998    2.4478 H        1 ZINC000013489183    0.1300
45     H45    -4.7589   -8.3242    3.4617 H        1 ZINC000013489183    0.1400
46     H46    -8.3455   -6.2091    0.0914 H        1 ZINC000013489183    0.1500
47     H47   -10.5056   -5.0238    0.1137 H        1 ZINC000013489183    0.1400
48     H48   -10.5591   -2.5672    0.0860 H        1 ZINC000013489183    0.1700
49     H49    -6.1401   -1.1267    0.0064 H        1 ZINC000013489183    0.1500
50     H50    -4.6342   -0.1935   -0.0280 H        1 ZINC000013489183    0.1300
51     H51    -2.5409    1.0943   -0.0699 H        1 ZINC000013489183    0.1300
@<TRIPOS>BOND
1     1     2     1
2     1     29    1
3     1     30    1
4     1     31    1
5     2     3     1
6     2     4     1
7     3     32    1
8     3     33    1
9     3     34    1
10    4     28    ar
11    4     5     ar
12    5     6     ar
13    5     35    1
14    6     7     ar
15    6     36    1
16    7     8     1
17    7     27    ar
18    8     26    ar
19    8     9     ar
20    9     10    ar
21    10    11    1
22    10    20    ar
23    11    12    1
24    11    13    1
25    12    37    1
26    12    38    1
27    12    39    1
28    13    14    1
29    13    40    1
30    13    41    1
31    14    15    1
32    14    42    1
33    14    43    1
34    15    16    1
35    15    44    1
36    15    45    1
37    16    17    1
38    16    18    1
39    16    19    1
40    20    25    ar
41    20    21    ar
42    21    22    ar
43    21    46    1
44    22    23    ar
45    22    47    1
46    23    24    ar
47    23    48    1
48    24    25    ar
49    25    26    ar
50    26    49    1
51    27    28    ar
52    27    50    1
53    28    51    1
@<TRIPOS>SUBSTRUCTURE
1   ZINC000013489183 1     RESIDUE    1   A     ZIN   1
