@<TRIPOS>MOLECULE
ZINC000003782943
52    56    1     0     0
SMALL
USER_CHARGES
@<TRIPOS>ATOM
1      C1     -5.4306   -3.3571    0.0345 C.ar     1 ZINC000003782943   -0.1200
2      C2     -4.3301   -4.2113    0.0189 C.ar     1 ZINC000003782943   -0.1000
3      C3     -3.0605   -3.7209    0.0099 C.ar     1 ZINC000003782943   -0.0900
4      C4     -2.8495   -2.3313    0.0158 C.ar     1 ZINC000003782943    0.1300
5      N5     -1.6140   -1.8208    0.0023 N.ar     1 ZINC000003782943   -0.4700
6      C6     -1.4117   -0.5257    0.0127 C.ar     1 ZINC000003782943    0.1700
7      C7      0.0021   -0.0041    0.0020 C.3      1 ZINC000003782943    0.1100
8      O8     -0.0173    1.4248    0.0099 O.3      1 ZINC000003782943   -0.3200
9      C9      1.1858    2.0586    0.0018 C.ar     1 ZINC000003782943    0.0800
10     C10     2.3591    1.3190   -0.0077 C.ar     1 ZINC000003782943   -0.1600
11     C11     3.5812    1.9629   -0.0212 C.ar     1 ZINC000003782943   -0.1600
12     C12     3.6350    3.3488   -0.0138 C.ar     1 ZINC000003782943    0.1100
13     O13     4.8380    3.9825   -0.0215 O.3      1 ZINC000003782943   -0.3100
14     C14     6.0054    3.1584   -0.0367 C.3      1 ZINC000003782943    0.0900
15     C15     7.2351    4.0294   -0.0433 C.ar     1 ZINC000003782943   -0.0800
16     C16     7.1073    5.4056   -0.0348 C.ar     1 ZINC000003782943   -0.1000
17     C17     8.2356    6.2047   -0.0405 C.ar     1 ZINC000003782943   -0.1300
18     C18     9.4913    5.6273   -0.0552 C.ar     1 ZINC000003782943   -0.1200
19     C19     9.6191    4.2507   -0.0637 C.ar     1 ZINC000003782943   -0.1100
20     C20     8.4913    3.4519   -0.0523 C.ar     1 ZINC000003782943   -0.0500
21     C21     8.6307    1.9513   -0.0553 C.3      1 ZINC000003782943    0.0300
22     C22     8.5447    1.4417   -1.4709 C.2      1 ZINC000003782943    0.0600
23     N23     7.4483    1.0724   -2.1086 N.2      1 ZINC000003782943   -0.3900
24     N24     7.7919    0.7031   -3.2952 N.pl3    1 ZINC000003782943   -0.2000
25     N25     9.0686    0.8222   -3.4156 N.2      1 ZINC000003782943   -0.2000
26     N26     9.5521    1.2737   -2.3089 N.2      1 ZINC000003782943   -0.3800
27     C27     2.4617    4.0883    0.0009 C.ar     1 ZINC000003782943   -0.1200
28     C28     1.2396    3.4445    0.0087 C.ar     1 ZINC000003782943   -0.1100
29     C29    -2.4692    0.3815    0.0277 C.ar     1 ZINC000003782943   -0.1500
30     C30    -3.7571   -0.0729    0.0371 C.ar     1 ZINC000003782943   -0.0600
31     C31    -3.9705   -1.4644    0.0312 C.ar     1 ZINC000003782943   -0.1000
32     C32    -5.2659   -2.0054    0.0397 C.ar     1 ZINC000003782943   -0.1000
33     H33    -6.4275   -3.7725    0.0417 H        1 ZINC000003782943    0.1300
34     H34    -4.4870   -5.2798    0.0143 H        1 ZINC000003782943    0.1300
35     H35    -2.2184   -4.3970   -0.0021 H        1 ZINC000003782943    0.1400
36     H36     0.5123   -0.3556   -0.8948 H        1 ZINC000003782943    0.0900
37     H37     0.5293   -0.3651    0.8851 H        1 ZINC000003782943    0.0900
38     H38     2.3173    0.2399   -0.0086 H        1 ZINC000003782943    0.1300
39     H39     4.4948    1.3870   -0.0331 H        1 ZINC000003782943    0.1400
40     H40     6.0140    2.5244    0.8499 H        1 ZINC000003782943    0.0700
41     H41     5.9976    2.5339   -0.9300 H        1 ZINC000003782943    0.1100
42     H42     6.1261    5.8567   -0.0233 H        1 ZINC000003782943    0.1300
43     H43     8.1357    7.2800   -0.0338 H        1 ZINC000003782943    0.1200
44     H44    10.3726    6.2515   -0.0603 H        1 ZINC000003782943    0.1200
45     H45    10.6003    3.7996   -0.0755 H        1 ZINC000003782943    0.1200
46     H46     9.5945    1.6751    0.3724 H        1 ZINC000003782943    0.0800
47     H47     7.8299    1.5108    0.5387 H        1 ZINC000003782943    0.0700
48     H48     2.5035    5.1674    0.0067 H        1 ZINC000003782943    0.1400
49     H49     0.3260    4.0203    0.0206 H        1 ZINC000003782943    0.1300
50     H50    -2.2705    1.4431    0.0322 H        1 ZINC000003782943    0.1500
51     H51    -4.5886    0.6161    0.0491 H        1 ZINC000003782943    0.1400
52     H52    -6.1268   -1.3534    0.0514 H        1 ZINC000003782943    0.1300
@<TRIPOS>BOND
1     1     32    ar
2     1     2     ar
3     1     33    1
4     2     3     ar
5     2     34    1
6     3     4     ar
7     3     35    1
8     4     31    ar
9     4     5     ar
10    5     6     ar
11    6     7     1
12    6     29    ar
13    7     8     1
14    7     36    1
15    7     37    1
16    8     9     1
17    9     28    ar
18    9     10    ar
19    10    11    ar
20    10    38    1
21    11    12    ar
22    11    39    1
23    12    13    1
24    12    27    ar
25    13    14    1
26    14    15    1
27    14    40    1
28    14    41    1
29    15    20    ar
30    15    16    ar
31    16    17    ar
32    16    42    1
33    17    18    ar
34    17    43    1
35    18    19    ar
36    18    44    1
37    19    20    ar
38    19    45    1
39    20    21    1
40    21    22    1
41    21    46    1
42    21    47    1
43    22    26    1
44    22    23    2
45    23    24    1
46    24    25    1
47    25    26    2
48    27    28    ar
49    27    48    1
50    28    49    1
51    29    30    ar
52    29    50    1
53    30    31    ar
54    30    51    1
55    31    32    ar
56    32    52    1
@<TRIPOS>SUBSTRUCTURE
1   ZINC000003782943 1     RESIDUE    1   A     ZIN   1
