@<TRIPOS>MOLECULE
ZINC000114475331
48    51    1     0     0
SMALL
USER_CHARGES
@<TRIPOS>ATOM
1      S1      0.0523    0.0188   -0.1727 S.2      1 ZINC000114475331   -0.6300
2      C2     -0.0243    1.7226   -0.0244 C.2      1 ZINC000114475331    0.5900
3      N3      1.1110    2.4421    0.0751 N.am     1 ZINC000114475331   -0.5200
4      N4      1.0475    3.8326    0.2336 N.2      1 ZINC000114475331   -0.2500
5      C5      2.1407    4.5303    0.2873 C.2      1 ZINC000114475331    0.1700
6      C6      2.1073    6.0439    0.2490 C.3      1 ZINC000114475331   -0.0600
7      C7      3.2351    6.5048   -0.6838 C.3      1 ZINC000114475331   -0.1200
8      C8      4.5808    6.0976   -0.0893 C.3      1 ZINC000114475331   -0.0900
9      C9      4.6245    4.6240    0.2022 C.ar     1 ZINC000114475331   -0.0900
10     C10     5.8516    3.9863    0.2902 C.ar     1 ZINC000114475331   -0.0700
11     C11     5.8766    2.6261    0.5639 C.ar     1 ZINC000114475331   -0.1500
12     C12     4.6857    1.9460    0.7415 C.ar     1 ZINC000114475331    0.1100
13     N13     3.5310    2.5729    0.6518 N.ar     1 ZINC000114475331   -0.4800
14     C14     3.4631    3.8749    0.3944 C.ar     1 ZINC000114475331    0.1100
15     N15    -1.2197    2.3450   -0.0128 N.am     1 ZINC000114475331   -0.5600
16     C16    -1.3130    3.8036   -0.1774 C.3      1 ZINC000114475331    0.0700
17     C17    -2.3301    4.1045   -1.2834 C.3      1 ZINC000114475331    0.0500
18     N18    -3.5988    3.4320   -0.9737 N.3      1 ZINC000114475331   -0.4800
19     C19    -4.5946    3.8112   -1.8663 C.ar     1 ZINC000114475331    0.3100
20     C20    -5.8752    3.2846   -1.7348 C.ar     1 ZINC000114475331   -0.1900
21     C21    -6.8568    3.6711   -2.6299 C.ar     1 ZINC000114475331   -0.0500
22     C22    -6.5230    4.5745   -3.6299 C.ar     1 ZINC000114475331   -0.2000
23     C23    -5.2315    5.0573   -3.7017 C.ar     1 ZINC000114475331    0.1300
24     N24    -4.3168    4.6749   -2.8311 N.ar     1 ZINC000114475331   -0.5200
25     C25    -3.4372    1.9720   -0.9545 C.3      1 ZINC000114475331    0.0500
26     C26    -2.4659    1.5829    0.1588 C.3      1 ZINC000114475331    0.1000
27     H27     1.9721    1.9971    0.0370 H        1 ZINC000114475331    0.4400
28     H28     1.1459    6.3835   -0.1363 H        1 ZINC000114475331    0.1000
29     H29     2.2682    6.4434    1.2502 H        1 ZINC000114475331    0.1000
30     H30     3.1128    6.0376   -1.6609 H        1 ZINC000114475331    0.0700
31     H31     3.1980    7.5889   -0.7913 H        1 ZINC000114475331    0.0900
32     H32     5.3730    6.3455   -0.7958 H        1 ZINC000114475331    0.0900
33     H33     4.7439    6.6496    0.8364 H        1 ZINC000114475331    0.0900
34     H34     6.7699    4.5366    0.1482 H        1 ZINC000114475331    0.1500
35     H35     6.8185    2.1029    0.6373 H        1 ZINC000114475331    0.1500
36     H36     4.7028    0.8877    0.9562 H        1 ZINC000114475331    0.1700
37     H37    -1.6433    4.2571    0.7571 H        1 ZINC000114475331    0.0800
38     H38    -0.3385    4.2035   -0.4574 H        1 ZINC000114475331    0.1600
39     H39    -2.4940    5.1804   -1.3438 H        1 ZINC000114475331    0.1000
40     H40    -1.9486    3.7402   -2.2372 H        1 ZINC000114475331    0.0500
41     H41    -6.1002    2.5833   -0.9449 H        1 ZINC000114475331    0.1400
42     H42    -7.8599    3.2786   -2.5527 H        1 ZINC000114475331    0.1400
43     H43    -7.2661    4.8961   -4.3447 H        1 ZINC000114475331    0.1400
44     H44    -4.9676    5.7602   -4.4780 H        1 ZINC000114475331    0.1600
45     H45    -4.4041    1.5013   -0.7764 H        1 ZINC000114475331    0.1000
46     H46    -3.0403    1.6374   -1.9129 H        1 ZINC000114475331    0.0600
47     H47    -2.2545    0.5151    0.1037 H        1 ZINC000114475331    0.1300
48     H48    -2.9043    1.8227    1.1276 H        1 ZINC000114475331    0.0900
@<TRIPOS>BOND
1     1     2     2
2     2     3     am
3     2     15    am
4     3     4     1
5     3     27    1
6     4     5     2
7     5     14    1
8     5     6     1
9     6     7     1
10    6     28    1
11    6     29    1
12    7     8     1
13    7     30    1
14    7     31    1
15    8     9     1
16    8     32    1
17    8     33    1
18    9     14    ar
19    9     10    ar
20    10    11    ar
21    10    34    1
22    11    12    ar
23    11    35    1
24    12    13    ar
25    12    36    1
26    13    14    ar
27    15    26    1
28    15    16    1
29    16    17    1
30    16    37    1
31    16    38    1
32    17    18    1
33    17    39    1
34    17    40    1
35    18    19    1
36    18    25    1
37    19    24    ar
38    19    20    ar
39    20    21    ar
40    20    41    1
41    21    22    ar
42    21    42    1
43    22    23    ar
44    22    43    1
45    23    24    ar
46    23    44    1
47    25    26    1
48    25    45    1
49    25    46    1
50    26    47    1
51    26    48    1
@<TRIPOS>SUBSTRUCTURE
1   ZINC000114475331 1     RESIDUE    1   A     ZIN   1
