@<TRIPOS>MOLECULE
ZINC000001487345
57    59    1     0     0
SMALL
USER_CHARGES
@<TRIPOS>ATOM
1      C1     -0.0173    1.4248    0.0099 C.3      1 ZINC000001487345    0.0300
2      O2      0.0021   -0.0041    0.0020 O.3      1 ZINC000001487345   -0.3200
3      C3      0.6058   -0.6071   -1.0557 C.ar     1 ZINC000001487345    0.1400
4      C4      1.1730    0.1607   -2.0624 C.ar     1 ZINC000001487345   -0.2100
5      C5      1.7865   -0.4547   -3.1363 C.ar     1 ZINC000001487345   -0.0600
6      C6      1.8352   -1.8346   -3.2086 C.ar     1 ZINC000001487345   -0.1500
7      C7      2.5046   -2.5033   -4.3815 C.3      1 ZINC000001487345    0.1800
8      N8      3.9227   -2.7134   -4.0797 N.pl3    1 ZINC000001487345   -0.6900
9      C9      4.7469   -3.3158   -5.0136 C.ar     1 ZINC000001487345    0.5400
10     C10     6.1083   -3.5300   -4.7375 C.ar     1 ZINC000001487345   -0.1600
11     N11     6.9164   -3.2728   -3.6796 N.2      1 ZINC000001487345   -0.4500
12     C12     8.1221   -3.6821   -3.9461 C.2      1 ZINC000001487345    0.2300
13     N13     8.1628   -4.2291   -5.1955 N.pl3    1 ZINC000001487345   -0.4700
14     C14     9.3402   -4.8004   -5.8538 C.3      1 ZINC000001487345    0.1400
15     C15    10.4230   -3.7272   -5.9834 C.3      1 ZINC000001487345   -0.1600
16     C16     9.8752   -5.9664   -5.0200 C.3      1 ZINC000001487345   -0.1600
17     C17     6.8986   -4.1463   -5.7219 C.ar     1 ZINC000001487345    0.3500
18     N18     6.3376   -4.5034   -6.8728 N.ar     1 ZINC000001487345   -0.6200
19     C19     5.0515   -4.2828   -7.0920 C.ar     1 ZINC000001487345    0.6300
20     N20     4.5036   -4.6694   -8.3040 N.pl3    1 ZINC000001487345   -0.5600
21     C21     3.0824   -4.4370   -8.5728 C.3      1 ZINC000001487345    0.1400
22     C22     2.9041   -3.0630   -9.2219 C.3      1 ZINC000001487345    0.0600
23     O23     3.5373   -3.0557  -10.5030 O.3      1 ZINC000001487345   -0.5700
24     C24     5.3454   -5.3107   -9.3171 C.3      1 ZINC000001487345    0.1400
25     C25     5.3220   -6.8270   -9.1143 C.3      1 ZINC000001487345    0.0600
26     O26     4.0018   -7.3191   -9.3530 O.3      1 ZINC000001487345   -0.5700
27     N27     4.2673   -3.7092   -6.1883 N.ar     1 ZINC000001487345   -0.6300
28     C28     1.2710   -2.6021   -2.2063 C.ar     1 ZINC000001487345   -0.0600
29     C29     0.6609   -1.9915   -1.1277 C.ar     1 ZINC000001487345   -0.1500
30     H30     1.0053    1.8021    0.0021 H        1 ZINC000001487345    0.0600
31     H31    -0.5445    1.7859   -0.8732 H        1 ZINC000001487345    0.0600
32     H32    -0.5275    1.7763    0.9067 H        1 ZINC000001487345    0.1000
33     H33     1.1347    1.2385   -2.0068 H        1 ZINC000001487345    0.1300
34     H34     2.2283    0.1425   -3.9203 H        1 ZINC000001487345    0.1300
35     H35     2.0276   -3.4646   -4.5726 H        1 ZINC000001487345    0.0800
36     H36     2.4108   -1.8695   -5.2632 H        1 ZINC000001487345    0.0800
37     H37     4.2839   -2.4302   -3.2252 H        1 ZINC000001487345    0.4200
38     H38     8.9661   -3.6010   -3.2773 H        1 ZINC000001487345    0.2100
39     H39     9.0639   -5.1593   -6.8452 H        1 ZINC000001487345    0.1100
40     H40    10.6994   -3.3682   -4.9920 H        1 ZINC000001487345    0.0700
41     H41    11.2991   -4.1522   -6.4732 H        1 ZINC000001487345    0.0800
42     H42    10.0419   -2.8965   -6.5774 H        1 ZINC000001487345    0.0600
43     H43     9.1038   -6.7310   -4.9276 H        1 ZINC000001487345    0.0600
44     H44    10.7512   -6.3914   -5.5098 H        1 ZINC000001487345    0.0800
45     H45    10.1515   -5.6074   -4.0286 H        1 ZINC000001487345    0.0700
46     H46     2.7092   -5.2083   -9.2465 H        1 ZINC000001487345    0.0900
47     H47     2.5251   -4.4716   -7.6367 H        1 ZINC000001487345    0.1000
48     H48     1.8412   -2.8525   -9.3407 H        1 ZINC000001487345    0.0500
49     H49     3.3570   -2.3004   -8.5884 H        1 ZINC000001487345    0.0500
50     H50     3.4640   -2.2138  -10.9731 H        1 ZINC000001487345    0.3800
51     H51     4.9652   -5.0710  -10.3101 H        1 ZINC000001487345    0.0900
52     H52     6.3687   -4.9472   -9.2223 H        1 ZINC000001487345    0.1000
53     H53     6.0165   -7.2974   -9.8102 H        1 ZINC000001487345    0.0500
54     H54     5.6177   -7.0614   -8.0917 H        1 ZINC000001487345    0.0500
55     H55     3.9126   -8.2756   -9.2423 H        1 ZINC000001487345    0.3800
56     H56     1.3106   -3.6797   -2.2649 H        1 ZINC000001487345    0.1300
57     H57     0.2204   -2.5913   -0.3451 H        1 ZINC000001487345    0.1300
@<TRIPOS>BOND
1     1     2     1
2     1     30    1
3     1     31    1
4     1     32    1
5     2     3     1
6     3     29    ar
7     3     4     ar
8     4     5     ar
9     4     33    1
10    5     6     ar
11    5     34    1
12    6     7     1
13    6     28    ar
14    7     8     1
15    7     35    1
16    7     36    1
17    8     9     1
18    8     37    1
19    9     27    ar
20    9     10    ar
21    10    17    ar
22    10    11    1
23    11    12    2
24    12    13    1
25    12    38    1
26    13    14    1
27    13    17    1
28    14    15    1
29    14    16    1
30    14    39    1
31    15    40    1
32    15    41    1
33    15    42    1
34    16    43    1
35    16    44    1
36    16    45    1
37    17    18    ar
38    18    19    ar
39    19    20    1
40    19    27    ar
41    20    21    1
42    20    24    1
43    21    22    1
44    21    46    1
45    21    47    1
46    22    23    1
47    22    48    1
48    22    49    1
49    23    50    1
50    24    25    1
51    24    51    1
52    24    52    1
53    25    26    1
54    25    53    1
55    25    54    1
56    26    55    1
57    28    29    ar
58    28    56    1
59    29    57    1
@<TRIPOS>SUBSTRUCTURE
1   ZINC000001487345 1     RESIDUE    1   A     ZIN   1
