@<TRIPOS>MOLECULE
ZINC000013538998
  46   49    0    0    0
SMALL
USER_CHARGES
NO_NAME
@<TRIPOS>ATOM
    1 C1       -0.0173     1.4248     0.0099 C.3    1 <0>       0.0300
    2 O2        0.0021    -0.0041     0.0020 O.3    1 <0>      -0.3200
    3 C3        0.6062    -0.6075    -1.0564 C.ar   1 <0>       0.1000
    4 C4        1.1741     0.1668    -2.0645 C.ar   1 <0>      -0.1800
    5 C5        1.7898    -0.4280    -3.1433 C.ar   1 <0>      -0.0900
    6 C6        1.8487    -1.8145    -3.2327 C.ar   1 <0>       0.0700
    7 C7        1.2763    -2.5996    -2.2157 C.ar   1 <0>      -0.0600
    8 C8        0.6588    -1.9856    -1.1241 C.ar   1 <0>      -0.1200
    9 C9        1.5036    -3.9938    -2.6034 C.2    1 <0>      -0.1900
   10 C10       1.0754    -5.2185    -1.8366 C.3    1 <0>      -0.0100
   11 C11      -0.3703    -5.5663    -2.1972 C.3    1 <0>      -0.0800
   12 H12      -1.0199    -4.7053    -2.0397 H      1 <0>       0.1300
   13 C13      -0.4593    -6.0426    -3.6315 C.2    1 <0>       0.5300
   14 O14      -0.1689    -5.4052    -4.6216 O.2    1 <0>      -0.4800
   15 N15      -0.9201    -7.3045    -3.6014 N.am   1 <0>      -0.6600
   16 C16      -1.1583    -7.7491    -2.3004 C.ar   1 <0>       0.2100
   17 C17      -1.6307    -8.9715    -1.8277 C.ar   1 <0>      -0.1600
   18 C18      -1.7854    -9.1769    -0.4720 C.ar   1 <0>       0.0200
   19 C19      -1.4734    -8.1739     0.4271 C.ar   1 <0>      -0.7000
   20 S20      -1.6733    -8.4445     2.1567 S.o2   1 <0>       2.7100
   21 N21      -0.2447    -9.0597     2.7249 N.am   1 <0>      -1.2500
   22 O22      -1.8216    -7.1615     2.7491 O.2    1 <0>      -0.9600
   23 O23      -2.6378    -9.4792     2.2920 O.2    1 <0>      -0.9600
   24 C24      -1.0030    -6.9567    -0.0351 C.ar   1 <0>       0.0400
   25 C25      -0.8494    -6.7469    -1.3843 C.ar   1 <0>      -0.1600
   26 C26       2.1656    -3.9742    -3.7711 C.2    1 <0>       0.1000
   27 N27       2.3812    -2.6815    -4.1636 N.pl3  1 <0>      -0.4900
   28 C28       3.0742    -2.2784    -5.3897 C.3    1 <0>       0.0800
   29 H29       1.0053     1.8021     0.0021 H      1 <0>       0.0500
   30 H30      -0.5445     1.7859    -0.8732 H      1 <0>       0.0500
   31 H31      -0.5275     1.7763     0.9067 H      1 <0>       0.1000
   32 H32       1.1312     1.2441    -2.0000 H      1 <0>       0.1300
   33 H33       2.2265     0.1823    -3.9200 H      1 <0>       0.1200
   34 H34       0.2182    -2.5852    -0.3413 H      1 <0>       0.1300
   35 H35       1.7255    -6.0545    -2.0947 H      1 <0>       0.0700
   36 H36       1.1455    -5.0204    -0.7671 H      1 <0>       0.0900
   37 H37      -1.0697    -7.8445    -4.3932 H      1 <0>       0.4200
   38 H38      -1.8766    -9.7599    -2.5237 H      1 <0>       0.1400
   39 H39      -2.1527   -10.1262    -0.1112 H      1 <0>       0.1500
   40 H40       0.0300    -8.8836     3.6384 H      1 <0>       0.4200
   41 H41       0.3175    -9.5962     2.1443 H      1 <0>       0.4200
   42 H42      -0.7581    -6.1709     0.6641 H      1 <0>       0.1500
   43 H43       2.4819    -4.8493    -4.3192 H      1 <0>       0.1600
   44 H44       2.3522    -2.1837    -6.2008 H      1 <0>       0.0700
   45 H45       3.5685    -1.3202    -5.2295 H      1 <0>       0.0800
   46 H46       3.8177    -3.0314    -5.6512 H      1 <0>       0.0800
@<TRIPOS>BOND
   1    1    2 1
   2    1   29 1
   3    1   30 1
   4    1   31 1
   5    2    3 1
   6    3    8 ar
   7    3    4 ar
   8    4    5 ar
   9    4   32 1
  10    5    6 ar
  11    5   33 1
  12    6   27 1
  13    6    7 ar
  14    7    8 ar
  15    7    9 1
  16    8   34 1
  17    9   10 1
  18    9   26 2
  19   10   11 1
  20   10   35 1
  21   10   36 1
  22   11   12 1
  23   11   25 1
  24   11   13 1
  25   13   14 2
  26   13   15 am
  27   15   16 1
  28   15   37 1
  29   16   25 ar
  30   16   17 ar
  31   17   18 ar
  32   17   38 1
  33   18   19 ar
  34   18   39 1
  35   19   20 1
  36   19   24 ar
  37   20   21 am
  38   20   22 2
  39   20   23 2
  40   21   40 1
  41   21   41 1
  42   24   25 ar
  43   24   42 1
  44   26   27 1
  45   26   43 1
  46   27   28 1
  47   28   44 1
  48   28   45 1
  49   28   46 1
