@<TRIPOS>MOLECULE
ZINC000008451792
57    60    1     0     0
SMALL
USER_CHARGES
@<TRIPOS>ATOM
1      C1     -2.1012    0.8714    2.2850 C.3      1 ZINC000008451792   -0.1500
2      C2     -2.2335   -0.6478    2.1609 C.3      1 ZINC000008451792    0.0500
3      O3     -1.4004   -1.1132    1.0972 O.3      1 ZINC000008451792   -0.3200
4      C4     -1.4014   -2.4507    0.8524 C.ar     1 ZINC000008451792    0.1200
5      C5     -2.1928   -3.2950    1.6174 C.ar     1 ZINC000008451792   -0.1900
6      C6     -2.1943   -4.6534    1.3693 C.ar     1 ZINC000008451792   -0.0800
7      C7     -1.4037   -5.1741    0.3535 C.ar     1 ZINC000008451792    0.1100
8      N8     -1.4050   -6.5522    0.1010 N.am     1 ZINC000008451792   -0.6600
9      C9     -2.5336   -7.2681    0.2748 C.2      1 ZINC000008451792    0.5100
10     O10    -3.5707   -6.7062    0.5578 O.2      1 ZINC000008451792   -0.5100
11     C11    -2.5071   -8.7667    0.1178 C.3      1 ZINC000008451792    0.0800
12     N12    -3.8481   -9.3064    0.3558 N.am     1 ZINC000008451792   -0.5500
13     C13    -4.2276   -9.6653    1.5907 C.2      1 ZINC000008451792    0.5400
14     O14    -3.5645   -9.5988    2.6084 O.2      1 ZINC000008451792   -0.4400
15     S15    -5.8928  -10.2559    1.4391 S.3      1 ZINC000008451792   -0.0200
16     C16    -5.9747   -9.9770   -0.3117 C.2      1 ZINC000008451792   -0.2600
17     C17    -7.0248  -10.2184   -1.1492 C.2      1 ZINC000008451792    0.1200
18     C18    -6.8592  -10.0872   -2.5448 C.2      1 ZINC000008451792   -0.0700
19     C19    -7.8111  -10.3740   -3.5072 C.2      1 ZINC000008451792   -0.1200
20     C20    -7.2256  -10.1014   -4.7462 C.2      1 ZINC000008451792   -0.2300
21     C21    -5.9544   -9.6635   -4.5034 C.2      1 ZINC000008451792    0.1100
22     C22    -4.9728   -9.2616   -5.5299 C.ar     1 ZINC000008451792   -0.0700
23     C23    -4.7213  -10.0954   -6.6235 C.ar     1 ZINC000008451792   -0.1000
24     C24    -3.8030   -9.7213   -7.5845 C.ar     1 ZINC000008451792   -0.1400
25     C25    -3.1273   -8.5227   -7.4738 C.ar     1 ZINC000008451792   -0.0800
26     C26    -3.3686   -7.6780   -6.3857 C.ar     1 ZINC000008451792   -0.1200
27     C27    -2.6456   -6.3968   -6.2693 C.2      1 ZINC000008451792    0.5300
28     O28    -3.2656   -5.3599   -6.0795 O.co2    1 ZINC000008451792   -0.6800
29     O29    -1.4266   -6.3720   -6.3625 O.co2    1 ZINC000008451792   -0.6900
30     C30    -4.2982   -8.0466   -5.4142 C.ar     1 ZINC000008451792   -0.0200
31     C31    -4.5641   -7.1419   -4.2387 C.3      1 ZINC000008451792   -0.1100
32     O32    -5.7465   -9.6542   -3.1744 O.3      1 ZINC000008451792   -0.0900
33     C33    -4.7035   -9.4417   -0.6429 C.2      1 ZINC000008451792    0.5400
34     O34    -4.4139   -9.1312   -1.7844 O.2      1 ZINC000008451792   -0.4200
35     C35    -0.6122   -4.3284   -0.4121 C.ar     1 ZINC000008451792   -0.1000
36     C36    -0.6153   -2.9696   -0.1660 C.ar     1 ZINC000008451792   -0.1300
37     H37    -2.7366    1.2264    3.0963 H        1 ZINC000008451792    0.0800
38     H38    -1.0636    1.1297    2.4964 H        1 ZINC000008451792    0.0700
39     H39    -2.4092    1.3404    1.3505 H        1 ZINC000008451792    0.0700
40     H40    -1.9255   -1.1168    3.0954 H        1 ZINC000008451792    0.0600
41     H41    -3.2711   -0.9061    1.9494 H        1 ZINC000008451792    0.0600
42     H42    -2.8077   -2.8898    2.4074 H        1 ZINC000008451792    0.1300
43     H43    -2.8099   -5.3107    1.9654 H        1 ZINC000008451792    0.1300
44     H44    -0.5937   -6.9911   -0.1991 H        1 ZINC000008451792    0.4100
45     H45    -2.1874   -9.0205   -0.8929 H        1 ZINC000008451792    0.1400
46     H46    -1.8099   -9.1952    0.8378 H        1 ZINC000008451792    0.1300
47     H47    -7.9826  -10.5100   -0.7442 H        1 ZINC000008451792    0.1700
48     H48    -8.8128  -10.7388   -3.3342 H        1 ZINC000008451792    0.1600
49     H49    -7.6907  -10.2154   -5.7142 H        1 ZINC000008451792    0.1600
50     H50    -5.2463  -11.0346   -6.7167 H        1 ZINC000008451792    0.1200
51     H51    -3.6123  -10.3699   -8.4268 H        1 ZINC000008451792    0.1200
52     H52    -2.4102   -8.2368   -8.2290 H        1 ZINC000008451792    0.1200
53     H53    -5.4111   -6.4937   -4.4633 H        1 ZINC000008451792    0.0600
54     H54    -4.7914   -7.7453   -3.3599 H        1 ZINC000008451792    0.0800
55     H55    -3.6820   -6.5323   -4.0426 H        1 ZINC000008451792    0.0700
56     H56     0.0030   -4.7328   -1.2023 H        1 ZINC000008451792    0.1400
57     H57     0.0000   -2.3117   -0.7617 H        1 ZINC000008451792    0.1400
@<TRIPOS>BOND
1     1     2     1
2     1     37    1
3     1     38    1
4     1     39    1
5     2     3     1
6     2     40    1
7     2     41    1
8     3     4     1
9     4     36    ar
10    4     5     ar
11    5     6     ar
12    5     42    1
13    6     7     ar
14    6     43    1
15    7     8     1
16    7     35    ar
17    8     9     am
18    8     44    1
19    9     10    2
20    9     11    1
21    11    12    1
22    11    45    1
23    11    46    1
24    12    33    am
25    12    13    am
26    13    14    2
27    13    15    1
28    15    16    1
29    16    17    2
30    16    33    1
31    17    18    1
32    17    47    1
33    18    32    1
34    18    19    2
35    19    20    1
36    19    48    1
37    20    21    2
38    20    49    1
39    21    22    1
40    21    32    1
41    22    30    ar
42    22    23    ar
43    23    24    ar
44    23    50    1
45    24    25    ar
46    24    51    1
47    25    26    ar
48    25    52    1
49    26    27    1
50    26    30    ar
51    27    28    ar
52    27    29    ar
53    30    31    1
54    31    53    1
55    31    54    1
56    31    55    1
57    33    34    2
58    35    36    ar
59    35    56    1
60    36    57    1
@<TRIPOS>SUBSTRUCTURE
1   ZINC000008451792 1     RESIDUE    1   A     ZIN   1
