@<TRIPOS>MOLECULE
ZINC000013447719
  35   38    0    0    0
SMALL
USER_CHARGES
NO_NAME
@<TRIPOS>ATOM
    1 C1       -0.0178     1.4608     0.0101 C.3    1 <0>       0.0800
    2 N2        0.0021    -0.0041     0.0020 N.pl3  1 <0>      -0.4800
    3 C3        0.0078    -0.7748    -1.1186 C.2    1 <0>       0.0900
    4 C4        0.0272    -2.0938    -0.7691 C.2    1 <0>      -0.1300
    5 C5        0.0394    -3.2468    -1.6836 C.2    1 <0>      -0.0400
    6 C6        1.1158    -3.7108    -2.4274 C.2    1 <0>      -0.0200
    7 C7        2.4796    -3.1472    -2.4604 C.2    1 <0>      -0.1300
    8 C8        2.8471    -1.9130    -2.9212 C.2    1 <0>       0.0300
    9 N9        4.1912    -1.7872    -2.7738 N.pl3  1 <0>      -0.5600
   10 C10       4.7100    -2.9221    -2.2226 C.2    1 <0>      -0.0100
   11 C11       3.7105    -3.7953    -2.0001 C.2    1 <0>      -0.1700
   12 C12       0.6216    -4.8817    -3.1784 C.2    1 <0>       0.5600
   13 O13       1.2772    -5.5606    -3.9436 O.2    1 <0>      -0.4500
   14 N14      -0.6734    -5.0727    -2.8749 N.am   1 <0>      -0.6900
   15 C15      -1.0913    -4.1502    -1.9915 C.2    1 <0>       0.5600
   16 O16      -2.2117    -4.0667    -1.5299 O.2    1 <0>      -0.4500
   17 C17       0.0340    -2.1368     0.7040 C.ar   1 <0>      -0.0700
   18 C18       0.0515    -3.1674     1.6406 C.ar   1 <0>      -0.0700
   19 C19       0.0527    -2.8670     2.9855 C.ar   1 <0>      -0.1400
   20 C20       0.0365    -1.5459     3.4077 C.ar   1 <0>      -0.1000
   21 C21       0.0191    -0.5160     2.4919 C.ar   1 <0>      -0.1300
   22 C22       0.0236    -0.7981     1.1301 C.ar   1 <0>       0.0900
   23 H23       1.0048     1.8381     0.0023 H      1 <0>       0.0700
   24 H24      -0.5450     1.8219    -0.8730 H      1 <0>       0.0900
   25 H25      -0.5280     1.8123     0.9069 H      1 <0>       0.0800
   26 H26      -0.0015    -0.3998    -2.1314 H      1 <0>       0.1700
   27 H27       2.1827    -1.1670    -3.3317 H      1 <0>       0.1700
   28 H28       4.7071    -1.0049    -3.0241 H      1 <0>       0.4200
   29 H29       5.7526    -3.0906    -1.9971 H      1 <0>       0.1700
   30 H30       3.7992    -4.7831    -1.5727 H      1 <0>       0.1400
   31 H31      -1.2279    -5.7804    -3.2391 H      1 <0>       0.4300
   32 H32       0.0638    -4.1969     1.3145 H      1 <0>       0.1200
   33 H33       0.0659    -3.6640     3.7142 H      1 <0>       0.1200
   34 H34       0.0373    -1.3220     4.4643 H      1 <0>       0.1300
   35 H35       0.0063     0.5092     2.8314 H      1 <0>       0.1200
@<TRIPOS>BOND
   1    1    2 1
   2    1   23 1
   3    1   24 1
   4    1   25 1
   5    2   22 1
   6    2    3 1
   7    3    4 2
   8    3   26 1
   9    4    5 1
  10    4   17 1
  11    5   15 1
  12    5    6 2
  13    6    7 1
  14    6   12 1
  15    7   11 1
  16    7    8 2
  17    8    9 1
  18    8   27 1
  19    9   10 1
  20    9   28 1
  21   10   11 2
  22   10   29 1
  23   11   30 1
  24   12   13 2
  25   12   14 am
  26   14   15 am
  27   14   31 1
  28   15   16 2
  29   17   22 ar
  30   17   18 ar
  31   18   19 ar
  32   18   32 1
  33   19   20 ar
  34   19   33 1
  35   20   21 ar
  36   20   34 1
  37   21   22 ar
  38   21   35 1
