@<TRIPOS>MOLECULE
ZINC000014645263
34    36    1     0     0
SMALL
USER_CHARGES
@<TRIPOS>ATOM
1      C1     -0.0173    1.4248    0.0099 C.3      1 ZINC000014645263    0.0300
2      O2      0.0021   -0.0041    0.0020 O.3      1 ZINC000014645263   -0.3000
3      C3      0.6075   -0.6088   -1.0587 C.2      1 ZINC000014645263    0.0200
4      C4      1.1729    0.1556   -2.0622 C.2      1 ZINC000014645263    0.0400
5      O5      1.1326    1.5048   -2.0034 O.3      1 ZINC000014645263   -0.2100
6      C6      1.6773    2.2620   -2.9697 C.2      1 ZINC000014645263    0.1900
7      C7      1.6077    3.7296   -2.8604 C.ar     1 ZINC000014645263   -0.0500
8      C8      2.1641    4.5340   -3.8594 C.ar     1 ZINC000014645263   -0.0800
9      C9      2.0974    5.9065   -3.7553 C.ar     1 ZINC000014645263   -0.1300
10     C10     1.4788    6.4937   -2.6602 C.ar     1 ZINC000014645263    0.1000
11     O11     1.4159    7.8469   -2.5627 O.3      1 ZINC000014645263   -0.4900
12     C12     0.9211    5.6976   -1.6599 C.ar     1 ZINC000014645263    0.0800
13     O13     0.3151    6.2767   -0.5889 O.3      1 ZINC000014645263   -0.4800
14     C14     0.9796    4.3217   -1.7594 C.ar     1 ZINC000014645263   -0.1000
15     C15     2.3010    1.6958   -4.0622 C.2      1 ZINC000014645263   -0.3000
16     C16     2.3735    0.3057   -4.1773 C.2      1 ZINC000014645263    0.2400
17     O17     2.9801   -0.2699   -5.2388 O.3      1 ZINC000014645263   -0.4000
18     C18     1.7978   -0.4843   -3.1571 C.2      1 ZINC000014645263   -0.2000
19     C19     1.8413   -1.8914   -3.2220 C.2      1 ZINC000014645263    0.3300
20     O20     2.4423   -2.5054   -4.2730 O.3      1 ZINC000014645263   -0.6500
21     C21     1.2781   -2.6361   -2.2251 C.2      1 ZINC000014645263   -0.4200
22     C22     0.6636   -2.0071   -1.1321 C.2      1 ZINC000014645263    0.3500
23     O23     0.1162   -2.7455   -0.1625 O.2      1 ZINC000014645263   -0.6400
24     H24     1.0053    1.8021    0.0021 H        1 ZINC000014645263    0.0500
25     H25    -0.5445    1.7859   -0.8732 H        1 ZINC000014645263    0.0500
26     H26    -0.5275    1.7763    0.9067 H        1 ZINC000014645263    0.0900
27     H27     2.6463    4.0798   -4.7124 H        1 ZINC000014645263    0.1400
28     H28     2.5279    6.5268   -4.5275 H        1 ZINC000014645263    0.1400
29     H29     0.6275    8.2342   -2.9671 H        1 ZINC000014645263    0.3900
30     H30    -0.6301    6.4393   -0.7123 H        1 ZINC000014645263    0.3900
31     H31     0.5482    3.7042   -0.9855 H        1 ZINC000014645263    0.1500
32     H32     2.7317    2.3257   -4.8265 H        1 ZINC000014645263    0.1500
33     H33     3.3396    0.3618   -5.8766 H        1 ZINC000014645263    0.3800
34     H34     1.3117   -3.7145   -2.2753 H        1 ZINC000014645263    0.1100
@<TRIPOS>BOND
1     1     2     1
2     1     24    1
3     1     25    1
4     1     26    1
5     2     3     1
6     3     22    1
7     3     4     2
8     4     18    1
9     4     5     1
10    5     6     1
11    6     7     1
12    6     15    2
13    7     14    ar
14    7     8     ar
15    8     9     ar
16    8     27    1
17    9     10    ar
18    9     28    1
19    10    11    1
20    10    12    ar
21    11    29    1
22    12    13    1
23    12    14    ar
24    13    30    1
25    14    31    1
26    15    16    1
27    15    32    1
28    16    17    1
29    16    18    2
30    17    33    1
31    18    19    1
32    19    20    1
33    19    21    2
34    21    22    1
35    21    34    1
36    22    23    2
@<TRIPOS>SUBSTRUCTURE
1   ZINC000014645263 1     RESIDUE    1   A     ZIN   1
