@<TRIPOS>MOLECULE
ZINC000038698888
43    46    1     0     0
SMALL
USER_CHARGES
@<TRIPOS>ATOM
1      N1      0.0175   -1.1399   -0.0042 N.1      1 ZINC000038698888   -0.4100
2      C2      0.0021   -0.0041    0.0020 C.1      1 ZINC000038698888    0.2500
3      C3     -0.0173    1.4278    0.0099 C.ar     1 ZINC000038698888   -0.0500
4      C4     -1.2340    2.1152    0.0311 C.ar     1 ZINC000038698888   -0.0300
5      C5     -1.2520    3.4904    0.0391 C.ar     1 ZINC000038698888   -0.1400
6      C6     -0.0566    4.2113    0.0257 C.ar     1 ZINC000038698888    0.1800
7      N7      0.1742    5.5840    0.0289 N.am     1 ZINC000038698888   -0.6600
8      C8      1.4839    5.8821    0.0112 C.2      1 ZINC000038698888    0.5400
9      O9      1.9697    6.9934    0.0097 O.2      1 ZINC000038698888   -0.4800
10     C10     2.2399    4.5706   -0.0062 C.3      1 ZINC000038698888   -0.0300
11     C11     3.1078    4.4447    1.2193 C.ar     1 ZINC000038698888    0.1500
12     C12     2.6803    4.9851    2.4172 C.ar     1 ZINC000038698888   -0.1600
13     C13     3.4862    4.8634    3.5391 C.ar     1 ZINC000038698888   -0.0600
14     C14     4.6968    4.1999    3.4131 C.ar     1 ZINC000038698888   -0.1300
15     C15     5.6075    4.0413    4.6034 C.3      1 ZINC000038698888    0.1000
16     N16     5.2809    2.7937    5.3069 N.3      1 ZINC000038698888   -0.5300
17     C17     3.8288    2.6576    5.4916 C.3      1 ZINC000038698888    0.0100
18     C18     3.5297    1.3198    6.1733 C.3      1 ZINC000038698888    0.0600
19     O19     4.2417    1.2519    7.4118 O.3      1 ZINC000038698888   -0.3800
20     C20     5.6589    1.3804    7.2689 C.3      1 ZINC000038698888    0.0600
21     C21     5.9796    2.7188    6.5983 C.3      1 ZINC000038698888    0.0200
22     C22     5.0579    3.6853    2.1821 C.ar     1 ZINC000038698888    0.1300
23     N23     4.2639    3.8155    1.1375 N.ar     1 ZINC000038698888   -0.4700
24     C24     1.1521    3.5209    0.0047 C.ar     1 ZINC000038698888   -0.1400
25     C25     1.1816    2.1489    0.0023 C.ar     1 ZINC000038698888    0.0000
26     H26    -2.1631    1.5647    0.0408 H        1 ZINC000038698888    0.1500
27     H27    -2.1957    4.0153    0.0555 H        1 ZINC000038698888    0.1400
28     H28    -0.5310    6.2500    0.0425 H        1 ZINC000038698888    0.4200
29     H29     2.8432    4.4893   -0.9104 H        1 ZINC000038698888    0.1500
30     H30     1.7308    5.4959    2.4787 H        1 ZINC000038698888    0.1300
31     H31     3.1781    5.2761    4.4885 H        1 ZINC000038698888    0.1400
32     H32     6.6435    4.0078    4.2663 H        1 ZINC000038698888    0.0900
33     H33     5.4724    4.8857    5.2793 H        1 ZINC000038698888    0.0500
34     H34     3.4631    3.4736    6.1149 H        1 ZINC000038698888    0.0400
35     H35     3.3338    2.6902    4.5210 H        1 ZINC000038698888    0.0900
36     H36     2.4595    1.2397    6.3639 H        1 ZINC000038698888    0.1000
37     H37     3.8469    0.5024    5.5258 H        1 ZINC000038698888    0.0600
38     H38     6.1285    1.3440    8.2519 H        1 ZINC000038698888    0.1000
39     H39     6.0380    0.5647    6.6533 H        1 ZINC000038698888    0.0600
40     H40     7.0546    2.7960    6.4355 H        1 ZINC000038698888    0.0900
41     H41     5.6482    3.5357    7.2393 H        1 ZINC000038698888    0.0500
42     H42     5.9996    3.1674    2.0755 H        1 ZINC000038698888    0.1600
43     H43     2.1274    1.6275   -0.0085 H        1 ZINC000038698888    0.1400
@<TRIPOS>BOND
1     1     2     3
2     2     3     1
3     3     25    ar
4     3     4     ar
5     4     5     ar
6     4     26    1
7     5     6     ar
8     5     27    1
9     6     24    ar
10    6     7     1
11    7     8     am
12    7     28    1
13    8     9     2
14    8     10    1
15    10    11    1
16    10    24    1
17    10    29    1
18    11    23    ar
19    11    12    ar
20    12    13    ar
21    12    30    1
22    13    14    ar
23    13    31    1
24    14    15    1
25    14    22    ar
26    15    16    1
27    15    32    1
28    15    33    1
29    16    21    1
30    16    17    1
31    17    18    1
32    17    34    1
33    17    35    1
34    18    19    1
35    18    36    1
36    18    37    1
37    19    20    1
38    20    21    1
39    20    38    1
40    20    39    1
41    21    40    1
42    21    41    1
43    22    23    ar
44    22    42    1
45    24    25    ar
46    25    43    1
@<TRIPOS>SUBSTRUCTURE
1   ZINC000038698888 1     RESIDUE    1   A     ZIN   1
