@<TRIPOS>MOLECULE
ZINC000098208112
63    65    1     0     0
SMALL
USER_CHARGES
@<TRIPOS>ATOM
1      C1     -2.9449    3.2476    0.4995 C.3      1 ZINC000098208112   -0.1500
2      C2     -3.1237    2.4579    1.7978 C.3      1 ZINC000098208112   -0.1100
3      C3     -4.4987    1.7869    1.8013 C.3      1 ZINC000098208112   -0.1500
4      C4     -2.0341    1.3886    1.8985 C.3      1 ZINC000098208112   -0.1000
5      C5     -0.6697    2.0638    2.0519 C.3      1 ZINC000098208112    0.0900
6      H6     -0.5252    2.7791    1.2422 H        1 ZINC000098208112    0.1000
7      N7      0.3886    1.0462    2.0010 N.3      1 ZINC000098208112   -0.6000
8      C8      1.6542    1.6259    1.5317 C.3      1 ZINC000098208112    0.1500
9      H9      1.7614    2.6349    1.9298 H        1 ZINC000098208112    0.0700
10     C10     1.6552    1.6774    0.0256 C.2      1 ZINC000098208112    0.5100
11     O11     0.8361    1.0416   -0.6035 O.2      1 ZINC000098208112   -0.4700
12     N12     2.5664    2.4300   -0.6223 N.am     1 ZINC000098208112   -0.7300
13     C13     2.5674    2.4800   -2.0865 C.3      1 ZINC000098208112    0.1700
14     C14     3.6764    3.3853   -2.5574 C.ar     1 ZINC000098208112   -0.1100
15     C15     3.4378    4.7351   -2.7365 C.ar     1 ZINC000098208112   -0.1000
16     C16     4.4550    5.5654   -3.1685 C.ar     1 ZINC000098208112   -0.1200
17     C17     5.7110    5.0461   -3.4209 C.ar     1 ZINC000098208112   -0.1100
18     C18     5.9499    3.6965   -3.2408 C.ar     1 ZINC000098208112   -0.1200
19     C19     4.9338    2.8669   -2.8048 C.ar     1 ZINC000098208112   -0.1000
20     C20     2.8033    0.7741    2.0060 C.2      1 ZINC000098208112   -0.0900
21     C21     2.8811   -0.5803    1.9307 C.2      1 ZINC000098208112    0.0700
22     C22     1.8489   -1.4634    1.3681 C.2      1 ZINC000098208112    0.5600
23     O23     0.8650   -0.9863    0.8350 O.2      1 ZINC000098208112   -0.4000
24     N24     1.9928   -2.8013    1.4432 N.am     1 ZINC000098208112   -0.6000
25     O25     1.0539   -3.6510    0.8094 O.3      1 ZINC000098208112   -0.3000
26     N26     4.0850   -0.9956    2.4672 N.pl3    1 ZINC000098208112   -0.5700
27     C27     4.7854    0.1092    2.8907 C.ar     1 ZINC000098208112    0.1300
28     C28     6.0285    0.2748    3.4939 C.ar     1 ZINC000098208112   -0.1200
29     C29     6.4735    1.5405    3.8098 C.ar     1 ZINC000098208112    0.0000
30     Cl30    8.0247    1.7438    4.5622 Cl       1 ZINC000098208112   -0.0600
31     C31     5.6918    2.6559    3.5311 C.ar     1 ZINC000098208112   -0.1300
32     C32     4.4696    2.5176    2.9406 C.ar     1 ZINC000098208112   -0.0500
33     C33     3.9980    1.2421    2.6044 C.ar     1 ZINC000098208112   -0.1000
34     C34    -0.6112    2.7836    3.3745 C.2      1 ZINC000098208112    0.4900
35     O35    -0.1795    2.2158    4.3554 O.2      1 ZINC000098208112   -0.5200
36     N36    -1.0387    4.0584    3.4674 N.am     1 ZINC000098208112   -0.5900
37     O37    -0.8965    4.7658    4.6858 O.3      1 ZINC000098208112   -0.3200
38     H38    -2.9169    2.5581   -0.3442 H        1 ZINC000098208112    0.0700
39     H39    -3.7790    3.9384    0.3767 H        1 ZINC000098208112    0.0600
40     H40    -2.0115    3.8088    0.5413 H        1 ZINC000098208112    0.0500
41     H41    -3.0479    3.1353    2.6484 H        1 ZINC000098208112    0.0700
42     H42    -4.5746    1.1095    0.9506 H        1 ZINC000098208112    0.0600
43     H43    -4.6261    1.2243    2.7262 H        1 ZINC000098208112    0.0600
44     H44    -5.2750    2.5487    1.7295 H        1 ZINC000098208112    0.0600
45     H45    -2.2255    0.7553    2.7647 H        1 ZINC000098208112    0.0700
46     H46    -2.0384    0.7792    0.9948 H        1 ZINC000098208112    0.1000
47     H47     0.5057    0.6011    2.8989 H        1 ZINC000098208112    0.3600
48     H48     3.2216    2.9385   -0.1192 H        1 ZINC000098208112    0.4000
49     H49     2.7234    1.4772   -2.4842 H        1 ZINC000098208112    0.0700
50     H50     1.6101    2.8653   -2.4375 H        1 ZINC000098208112    0.0800
51     H51     2.4565    5.1408   -2.5394 H        1 ZINC000098208112    0.1200
52     H52     4.2684    6.6198   -3.3092 H        1 ZINC000098208112    0.1200
53     H53     6.5056    5.6948   -3.7590 H        1 ZINC000098208112    0.1200
54     H54     6.9311    3.2908   -3.4383 H        1 ZINC000098208112    0.1200
55     H55     5.1204    1.8125   -2.6641 H        1 ZINC000098208112    0.1200
56     H56     2.7394   -3.1822    1.9313 H        1 ZINC000098208112    0.4000
57     H57     1.2401   -4.5936    0.9184 H        1 ZINC000098208112    0.3900
58     H58     4.3864   -1.9151    2.5339 H        1 ZINC000098208112    0.4200
59     H59     6.6426   -0.5859    3.7141 H        1 ZINC000098208112    0.1400
60     H60     6.0552    3.6408    3.7847 H        1 ZINC000098208112    0.1400
61     H61     3.8691    3.3899    2.7286 H        1 ZINC000098208112    0.1300
62     H62    -1.4437    4.4913    2.6997 H        1 ZINC000098208112    0.4100
63     H63    -1.1610    5.6945    4.6345 H        1 ZINC000098208112    0.3900
@<TRIPOS>BOND
1     1     2     1
2     1     38    1
3     1     39    1
4     1     40    1
5     2     3     1
6     2     4     1
7     2     41    1
8     3     42    1
9     3     43    1
10    3     44    1
11    4     5     1
12    4     45    1
13    4     46    1
14    5     6     1
15    5     7     1
16    5     34    1
17    7     8     1
18    7     47    1
19    8     9     1
20    8     10    1
21    8     20    1
22    10    11    2
23    10    12    am
24    12    13    1
25    12    48    1
26    13    14    1
27    13    49    1
28    13    50    1
29    14    19    ar
30    14    15    ar
31    15    16    ar
32    15    51    1
33    16    17    ar
34    16    52    1
35    17    18    ar
36    17    53    1
37    18    19    ar
38    18    54    1
39    19    55    1
40    20    33    1
41    20    21    2
42    21    22    1
43    21    26    1
44    22    23    2
45    22    24    am
46    24    25    1
47    24    56    1
48    25    57    1
49    26    27    1
50    26    58    1
51    27    33    ar
52    27    28    ar
53    28    29    ar
54    28    59    1
55    29    30    1
56    29    31    ar
57    31    32    ar
58    31    60    1
59    32    33    ar
60    32    61    1
61    34    35    2
62    34    36    am
63    36    37    1
64    36    62    1
65    37    63    1
@<TRIPOS>SUBSTRUCTURE
1   ZINC000098208112 1     RESIDUE    1   A     ZIN   1
