@<TRIPOS>MOLECULE
ZINC000001056739
  55   57    0    0    0
SMALL
USER_CHARGES
NO_NAME
@<TRIPOS>ATOM
    1 C1       -0.0532     1.4389     0.0482 C.3    1 <0>       0.0300
    2 O2       -0.0261     0.0102     0.0328 O.3    1 <0>      -0.3100
    3 C3       -1.2259    -0.6301     0.0361 C.ar   1 <0>       0.1800
    4 C4       -2.4023     0.1034     0.0479 C.ar   1 <0>      -0.2500
    5 C5       -3.6237    -0.5447     0.0512 C.ar   1 <0>      -0.0300
    6 C6       -3.6741    -1.9301     0.0431 C.ar   1 <0>       0.0500
    7 N7       -4.9128    -2.5874     0.0465 N.am   1 <0>      -0.9100
    8 C8       -5.6191    -2.8255    -1.2147 C.3    1 <0>       0.1100
    9 C9       -5.1093    -4.0965    -1.8438 C.2    1 <0>       0.4900
   10 O10      -4.2413    -4.7401    -1.2929 O.2    1 <0>      -0.4700
   11 N11      -5.6178    -4.5179    -3.0187 N.am   1 <0>      -0.6700
   12 C12      -5.0802    -5.6458    -3.6496 C.ar   1 <0>       0.1500
   13 C13      -4.6073    -6.7080    -2.8907 C.ar   1 <0>      -0.1000
   14 C14      -4.0772    -7.8198    -3.5158 C.ar   1 <0>      -0.1000
   15 C15      -4.0168    -7.8755    -4.8970 C.ar   1 <0>      -0.0500
   16 Cl16     -3.3499    -9.2743    -5.6795 Cl     1 <0>      -0.0700
   17 C17      -4.4875    -6.8180    -5.6558 C.ar   1 <0>      -0.0900
   18 C18      -5.0240    -5.7068    -5.0360 C.ar   1 <0>      -0.1000
   19 C19      -5.5363    -4.5558    -5.8629 C.3    1 <0>      -0.1100
   20 S20      -5.5772    -3.0945     1.4761 S.o2   1 <0>       2.6900
   21 O21      -6.3509    -4.2471     1.1724 O.2    1 <0>      -0.9400
   22 O22      -4.5242    -3.0946     2.4302 O.2    1 <0>      -0.9300
   23 C23      -6.7157    -1.8526     1.9917 C.ar   1 <0>      -0.6800
   24 C24      -6.2862    -0.8103     2.7917 C.ar   1 <0>      -0.0200
   25 C25      -7.1794     0.1640     3.1963 C.ar   1 <0>      -0.1400
   26 C26      -8.5021     0.0964     2.8004 C.ar   1 <0>      -0.0600
   27 C27      -8.9315    -0.9454     1.9996 C.ar   1 <0>      -0.1400
   28 C28      -8.0373    -1.9174     1.5915 C.ar   1 <0>      -0.0200
   29 C29      -2.4928    -2.6686     0.0312 C.ar   1 <0>       0.2000
   30 O30      -2.5394    -4.0278     0.0233 O.3    1 <0>      -0.2600
   31 C31      -1.2891    -4.7197     0.0113 C.3    1 <0>       0.0200
   32 C32      -1.2714    -2.0166     0.0218 C.ar   1 <0>      -0.2500
   33 H33       0.9673     1.8217     0.0437 H      1 <0>       0.1000
   34 H34      -0.5812     1.8017    -0.8337 H      1 <0>       0.0600
   35 H35      -0.5664     1.7829     0.9461 H      1 <0>       0.0600
   36 H36      -2.3646     1.1827     0.0549 H      1 <0>       0.1400
   37 H37      -4.5389     0.0287     0.0604 H      1 <0>       0.1400
   38 H38      -6.6876    -2.9193    -1.0207 H      1 <0>       0.1100
   39 H39      -5.4449    -1.9895    -1.8921 H      1 <0>       0.1200
   40 H40      -6.3563    -4.0397    -3.4270 H      1 <0>       0.4100
   41 H41      -4.6536    -6.6647    -1.8126 H      1 <0>       0.1500
   42 H42      -3.7092    -8.6463    -2.9259 H      1 <0>       0.1400
   43 H43      -4.4392    -6.8639    -6.7338 H      1 <0>       0.1400
   44 H44      -6.5909    -4.7125    -6.0898 H      1 <0>       0.0700
   45 H45      -5.4189    -3.6269    -5.3048 H      1 <0>       0.0700
   46 H46      -4.9698    -4.4955    -6.7921 H      1 <0>       0.0700
   47 H47      -5.2527    -0.7575     3.1010 H      1 <0>       0.1400
   48 H48      -6.8439     0.9779     3.8219 H      1 <0>       0.1300
   49 H49      -9.2001     0.8573     3.1170 H      1 <0>       0.1300
   50 H50      -9.9650    -0.9984     1.6905 H      1 <0>       0.1300
   51 H51      -8.3728    -2.7313     0.9659 H      1 <0>       0.1400
   52 H52      -1.4688    -5.7948     0.0059 H      1 <0>       0.1000
   53 H53      -0.7280    -4.4407    -0.8805 H      1 <0>       0.0500
   54 H54      -0.7168    -4.4515     0.8993 H      1 <0>       0.0600
   55 H55      -0.3544    -2.5872     0.0122 H      1 <0>       0.1400
@<TRIPOS>BOND
   1    1    2 1
   2    1   33 1
   3    1   34 1
   4    1   35 1
   5    2    3 1
   6    3   32 ar
   7    3    4 ar
   8    4    5 ar
   9    4   36 1
  10    5    6 ar
  11    5   37 1
  12    6    7 1
  13    6   29 ar
  14    7    8 1
  15    7   20 am
  16    8    9 1
  17    8   38 1
  18    8   39 1
  19    9   10 2
  20    9   11 am
  21   11   12 1
  22   11   40 1
  23   12   18 ar
  24   12   13 ar
  25   13   14 ar
  26   13   41 1
  27   14   15 ar
  28   14   42 1
  29   15   16 1
  30   15   17 ar
  31   17   18 ar
  32   17   43 1
  33   18   19 1
  34   19   44 1
  35   19   45 1
  36   19   46 1
  37   20   21 2
  38   20   22 2
  39   20   23 1
  40   23   28 ar
  41   23   24 ar
  42   24   25 ar
  43   24   47 1
  44   25   26 ar
  45   25   48 1
  46   26   27 ar
  47   26   49 1
  48   27   28 ar
  49   27   50 1
  50   28   51 1
  51   29   30 1
  52   29   32 ar
  53   30   31 1
  54   31   52 1
  55   31   53 1
  56   31   54 1
  57   32   55 1
