@<TRIPOS>MOLECULE
ZINC000000394471
26    26    1     0     0
SMALL
USER_CHARGES
@<TRIPOS>ATOM
1      C1     -0.0187    1.5258    0.0104 C.3      1 ZINC000000394471   -0.1700
2      C2      0.0021   -0.0041    0.0020 C.3      1 ZINC000000394471    0.1000
3      N3     -1.3723   -0.5112    0.0124 N.am     1 ZINC000000394471   -0.5500
4      C4     -2.0036   -0.7486    1.2092 C.2      1 ZINC000000394471    0.4800
5      N5     -1.3531   -0.5130    2.3933 N.pl3    1 ZINC000000394471   -0.8400
6      C6     -3.2865   -1.2213    1.2093 C.2      1 ZINC000000394471   -0.4100
7      C7     -3.9278   -1.4528   -0.0176 C.2      1 ZINC000000394471    0.5600
8      O8     -5.0718   -1.8739   -0.0419 O.2      1 ZINC000000394471   -0.5300
9      N9     -3.2716   -1.2064   -1.1686 N.am     1 ZINC000000394471   -0.5600
10     C10    -3.9387   -1.4467   -2.4506 C.3      1 ZINC000000394471    0.1100
11     C11    -4.6693   -0.1766   -2.8912 C.3      1 ZINC000000394471   -0.1700
12     C12    -2.0111   -0.7364   -1.1504 C.2      1 ZINC000000394471    0.7100
13     O13    -1.4372   -0.5209   -2.2004 O.2      1 ZINC000000394471   -0.5400
14     H14     1.0039    1.9031    0.0027 H        1 ZINC000000394471    0.0800
15     H15    -0.5459    1.8868   -0.8726 H        1 ZINC000000394471    0.0700
16     H16    -0.5289    1.8773    0.9072 H        1 ZINC000000394471    0.0600
17     H17     0.5123   -0.3556   -0.8948 H        1 ZINC000000394471    0.1100
18     H18     0.5293   -0.3651    0.8851 H        1 ZINC000000394471    0.0900
19     H19    -0.4430   -0.1773    2.3882 H        1 ZINC000000394471    0.4100
20     H20    -1.8029   -0.6822    3.2358 H        1 ZINC000000394471    0.4300
21     H21    -3.7990   -1.4143    2.1402 H        1 ZINC000000394471    0.1600
22     H22    -3.1963   -1.7178   -3.2012 H        1 ZINC000000394471    0.1000
23     H23    -4.6569   -2.2591   -2.3399 H        1 ZINC000000394471    0.1000
24     H24    -5.1656   -0.3554   -3.8451 H        1 ZINC000000394471    0.0800
25     H25    -5.4117    0.0945   -2.1406 H        1 ZINC000000394471    0.0600
26     H26    -3.9511    0.6358   -3.0019 H        1 ZINC000000394471    0.0600
@<TRIPOS>BOND
1     1     2     1
2     1     14    1
3     1     15    1
4     1     16    1
5     2     3     1
6     2     17    1
7     2     18    1
8     3     12    am
9     3     4     1
10    4     5     1
11    4     6     2
12    5     19    1
13    5     20    1
14    6     7     1
15    6     21    1
16    7     8     2
17    7     9     am
18    9     10    1
19    9     12    am
20    10    11    1
21    10    22    1
22    10    23    1
23    11    24    1
24    11    25    1
25    11    26    1
26    12    13    2
@<TRIPOS>SUBSTRUCTURE
1   ZINC000000394471 1     RESIDUE    1   A     ZIN   1
