@<TRIPOS>MOLECULE
ZINC000095616578
  51   54    0    0    0
SMALL
USER_CHARGES
NO_NAME
@<TRIPOS>ATOM
    1 C1       -3.7203    -0.9515     0.2456 C.3    1 <0>       0.0300
    2 O2       -3.2030    -2.2164     0.6632 O.3    1 <0>      -0.3800
    3 C3       -1.8607    -2.1631     1.1507 C.3    1 <0>       0.0900
    4 C4       -1.8760    -1.9039     2.6590 C.3    1 <0>      -0.1600
    5 C5       -0.4355    -1.8130     3.1720 C.3    1 <0>       0.1100
    6 N6        0.2852    -3.0306     2.7763 N.am   1 <0>      -0.6100
    7 C7        0.9325    -3.7747     3.6950 C.2    1 <0>       0.5700
    8 O8        0.9876    -3.4011     4.8505 O.2    1 <0>      -0.5200
    9 C9        1.5747    -5.0440     3.2978 C.ar   1 <0>      -0.1600
   10 C10       2.4956    -5.0661     2.2486 C.ar   1 <0>      -0.0500
   11 C11       3.0917    -6.2545     1.8827 C.ar   1 <0>      -0.0900
   12 C12       4.0858    -6.2787     0.7503 C.3    1 <0>      -0.0200
   13 C13       5.4714    -6.0413     1.2930 C.2    1 <0>       0.1400
   14 N14       5.6479    -5.8624     2.5682 N.2    1 <0>      -0.2200
   15 N15       6.9048    -5.6388     3.1309 N.am   1 <0>      -0.5300
   16 C16       8.0228    -5.5946     2.3768 C.2    1 <0>       0.5300
   17 O17       9.1100    -5.3984     2.8899 O.2    1 <0>      -0.5200
   18 C18       7.9044    -5.7881     0.9260 C.ar   1 <0>      -0.1300
   19 C19       9.0148    -5.7557     0.0844 C.ar   1 <0>      -0.0500
   20 C20       8.8461    -5.9433    -1.2701 C.ar   1 <0>      -0.1100
   21 C21       7.5830    -6.1635    -1.8036 C.ar   1 <0>      -0.0900
   22 C22       6.4717    -6.1997    -0.9911 C.ar   1 <0>      -0.1000
   23 C23       6.6185    -6.0182     0.3852 C.ar   1 <0>      -0.0600
   24 C24       2.7804    -7.4252     2.5524 C.ar   1 <0>      -0.0500
   25 C25       1.8699    -7.4137     3.5926 C.ar   1 <0>      -0.1500
   26 C26       1.2678    -6.2289     3.9746 C.ar   1 <0>       0.1500
   27 F27       0.3784    -6.2177     4.9914 F      1 <0>      -0.1200
   28 C28       0.2866    -3.4220     1.3601 C.3    1 <0>       0.1000
   29 C29      -1.1621    -3.4949     0.8674 C.3    1 <0>      -0.1300
   30 H30      -3.1016    -0.5535    -0.5587 H      1 <0>       0.0400
   31 H31      -4.7428    -1.0769    -0.1106 H      1 <0>       0.0900
   32 H32      -3.7112    -0.2594     1.0876 H      1 <0>       0.0400
   33 H33      -1.3241    -1.3576     0.6495 H      1 <0>       0.0600
   34 H34      -2.3943    -0.9667     2.8618 H      1 <0>       0.0800
   35 H35      -2.3910    -2.7216     3.1634 H      1 <0>       0.0800
   36 H36       0.0532    -0.9414     2.7366 H      1 <0>       0.0700
   37 H37      -0.4393    -1.7275     4.2587 H      1 <0>       0.1000
   38 H38       2.7404    -4.1542     1.7243 H      1 <0>       0.1400
   39 H39       4.0504    -7.2498     0.2565 H      1 <0>       0.1100
   40 H40       3.8378    -5.4969     0.0324 H      1 <0>       0.1100
   41 H41       6.9768    -5.5113     4.0897 H      1 <0>       0.4400
   42 H42      10.0005    -5.5843     0.4910 H      1 <0>       0.1400
   43 H43       9.7053    -5.9186    -1.9239 H      1 <0>       0.1400
   44 H44       7.4709    -6.3078    -2.8680 H      1 <0>       0.1400
   45 H45       5.4935    -6.3716    -1.4155 H      1 <0>       0.1400
   46 H46       3.2510    -8.3525     2.2607 H      1 <0>       0.1400
   47 H47       1.6317    -8.3308     4.1108 H      1 <0>       0.1400
   48 H48       0.8341    -2.6816     0.7769 H      1 <0>       0.0800
   49 H49       0.7592    -4.3982     1.2512 H      1 <0>       0.1000
   50 H50      -1.6837    -4.2976     1.3887 H      1 <0>       0.0800
   51 H51      -1.1722    -3.6901    -0.2050 H      1 <0>       0.0900
@<TRIPOS>BOND
   1    1    2 1
   2    1   30 1
   3    1   31 1
   4    1   32 1
   5    2    3 1
   6    3   29 1
   7    3    4 1
   8    3   33 1
   9    4    5 1
  10    4   34 1
  11    4   35 1
  12    5    6 1
  13    5   36 1
  14    5   37 1
  15    6    7 am
  16    6   28 1
  17    7    8 2
  18    7    9 1
  19    9   26 ar
  20    9   10 ar
  21   10   11 ar
  22   10   38 1
  23   11   12 1
  24   11   24 ar
  25   12   13 1
  26   12   39 1
  27   12   40 1
  28   13   23 1
  29   13   14 2
  30   14   15 1
  31   15   16 am
  32   15   41 1
  33   16   17 2
  34   16   18 1
  35   18   23 ar
  36   18   19 ar
  37   19   20 ar
  38   19   42 1
  39   20   21 ar
  40   20   43 1
  41   21   22 ar
  42   21   44 1
  43   22   23 ar
  44   22   45 1
  45   24   25 ar
  46   24   46 1
  47   25   26 ar
  48   25   47 1
  49   26   27 1
  50   28   29 1
  51   28   48 1
  52   28   49 1
  53   29   50 1
  54   29   51 1
