@<TRIPOS>MOLECULE
ZINC000072326235
39    41    1     0     0
SMALL
USER_CHARGES
@<TRIPOS>ATOM
1      C1     -3.1773    0.9798    1.2222 C.3      1 ZINC000072326235   -0.1200
2      C2     -2.8763   -0.4947    1.1412 C.2      1 ZINC000072326235    0.0800
3      C3     -3.6385   -1.3214    0.3793 C.2      1 ZINC000072326235   -0.3500
4      C4     -3.3367   -2.6976    0.3198 C.2      1 ZINC000072326235    0.5100
5      O5     -4.0283   -3.4278   -0.3672 O.2      1 ZINC000072326235   -0.5200
6      O6     -2.3065   -3.2231    1.0008 O.3      1 ZINC000072326235   -0.2700
7      C7     -1.5098   -2.4563    1.7765 C.ar     1 ZINC000072326235    0.1600
8      C8     -0.4454   -3.0169    2.4763 C.ar     1 ZINC000072326235    0.0000
9      N9     -0.1865   -4.3927    2.3826 N.am     1 ZINC000072326235   -0.6600
10     C10     0.2662   -5.0679    3.4576 C.2      1 ZINC000072326235    0.5300
11     O11     0.3924   -4.4997    4.5218 O.2      1 ZINC000072326235   -0.4700
12     C12     0.6155   -6.5289    3.3374 C.3      1 ZINC000072326235   -0.0900
13     C13     1.0928   -7.0427    4.6714 C.ar     1 ZINC000072326235   -0.0200
14     C14     2.4433   -7.1652    4.9218 C.ar     1 ZINC000072326235   -0.1300
15     C15     2.8835   -7.6364    6.1465 C.ar     1 ZINC000072326235   -0.1300
16     C16     1.9735   -7.9881    7.1276 C.ar     1 ZINC000072326235   -0.1500
17     C17     0.6195   -7.8712    6.8911 C.ar     1 ZINC000072326235   -0.0900
18     C18     0.1681   -7.3905    5.6595 C.ar     1 ZINC000072326235   -0.1200
19     C19    -1.2785   -7.2622    5.3991 C.2      1 ZINC000072326235    0.5200
20     O20    -2.0864   -7.6749    6.2192 O.co2    1 ZINC000072326235   -0.7000
21     O21    -1.6696   -6.7430    4.3633 O.co2    1 ZINC000072326235   -0.6700
22     C22     0.3605   -2.2065    3.2684 C.ar     1 ZINC000072326235    0.3100
23     O23     1.4002   -2.7516    3.9519 O.3      1 ZINC000072326235   -0.6200
24     C24     0.1099   -0.8411    3.3657 C.ar     1 ZINC000072326235   -0.2500
25     C25    -0.9309   -0.2770    2.6848 C.ar     1 ZINC000072326235   -0.0300
26     C26    -1.7503   -1.0740    1.8772 C.ar     1 ZINC000072326235   -0.2900
27     H27    -2.6356    1.5049    0.4355 H        1 ZINC000072326235    0.0800
28     H28    -4.2480    1.1395    1.0950 H        1 ZINC000072326235    0.0700
29     H29    -2.8660    1.3613    2.1946 H        1 ZINC000072326235    0.0700
30     H30    -4.4739   -0.9257   -0.1794 H        1 ZINC000072326235    0.1300
31     H31    -0.3332   -4.8578    1.5441 H        1 ZINC000072326235    0.3900
32     H32    -0.2664   -7.0891    3.0268 H        1 ZINC000072326235    0.1200
33     H33     1.4050   -6.6540    2.5963 H        1 ZINC000072326235    0.0600
34     H34     3.1593   -6.8932    4.1603 H        1 ZINC000072326235    0.1100
35     H35     3.9423   -7.7303    6.3371 H        1 ZINC000072326235    0.1100
36     H36     2.3241   -8.3554    8.0808 H        1 ZINC000072326235    0.1100
37     H37    -0.0897   -8.1465    7.6577 H        1 ZINC000072326235    0.1200
38     H38     0.7431   -0.2228    3.9847 H        1 ZINC000072326235    0.1100
39     H39    -1.1188    0.7835    2.7660 H        1 ZINC000072326235    0.1100
@<TRIPOS>BOND
1     1     2     1
2     1     27    1
3     1     28    1
4     1     29    1
5     2     26    1
6     2     3     2
7     3     4     1
8     3     30    1
9     4     5     2
10    4     6     1
11    6     7     1
12    7     26    ar
13    7     8     ar
14    8     9     1
15    8     22    ar
16    9     10    am
17    9     31    1
18    10    11    2
19    10    12    1
20    12    13    1
21    12    32    1
22    12    33    1
23    13    18    ar
24    13    14    ar
25    14    15    ar
26    14    34    1
27    15    16    ar
28    15    35    1
29    16    17    ar
30    16    36    1
31    17    18    ar
32    17    37    1
33    18    19    1
34    19    20    ar
35    19    21    ar
36    22    23    1
37    22    24    ar
38    24    25    ar
39    24    38    1
40    25    26    ar
41    25    39    1
@<TRIPOS>SUBSTRUCTURE
1   ZINC000072326235 1     RESIDUE    1   A     ZIN   1
