@<TRIPOS>MOLECULE
ZINC000008648554
27    28    1     0     0
SMALL
USER_CHARGES
@<TRIPOS>ATOM
1      C1     -0.0187    1.5258    0.0104 C.3      1 ZINC000008648554   -0.1500
2      C2      0.0021   -0.0041    0.0020 C.3      1 ZINC000008648554    0.0600
3      O3     -1.3601   -0.5067    0.0123 O.3      1 ZINC000008648554   -0.3500
4      C4     -1.5186   -1.8451    0.0066 C.2      1 ZINC000008648554    0.5200
5      O5     -0.5448   -2.5723   -0.0066 O.2      1 ZINC000008648554   -0.4900
6      C6     -2.8707   -2.4261    0.0164 C.ar     1 ZINC000008648554   -0.2200
7      C7     -4.0013   -1.5923    0.0259 C.ar     1 ZINC000008648554    0.2100
8      N8     -5.2143   -2.0821    0.0351 N.ar     1 ZINC000008648554   -0.4800
9      C9     -5.4461   -3.4022    0.0356 C.ar     1 ZINC000008648554    0.1900
10     C10    -6.7584   -3.9003    0.0451 C.ar     1 ZINC000008648554   -0.0900
11     C11    -6.9732   -5.2471    0.0451 C.ar     1 ZINC000008648554    0.0100
12     Cl12   -8.6001   -5.8528    0.0568 Cl       1 ZINC000008648554   -0.0400
13     C13    -5.9077   -6.1443    0.0354 C.ar     1 ZINC000008648554   -0.1100
14     C14    -4.6194   -5.6967    0.0260 C.ar     1 ZINC000008648554    0.0200
15     Cl15   -3.3024   -6.8276    0.0134 Cl       1 ZINC000008648554   -0.0200
16     C16    -4.3644   -4.3159    0.0261 C.ar     1 ZINC000008648554   -0.1400
17     C17    -3.0437   -3.8164    0.0106 C.ar     1 ZINC000008648554    0.2600
18     O18    -1.9809   -4.6525   -0.0054 O.3      1 ZINC000008648554   -0.4500
19     H19     1.0039    1.9031    0.0027 H        1 ZINC000008648554    0.0800
20     H20    -0.5459    1.8868   -0.8726 H        1 ZINC000008648554    0.0700
21     H21    -0.5289    1.8773    0.9072 H        1 ZINC000008648554    0.0700
22     H22     0.5123   -0.3556   -0.8948 H        1 ZINC000008648554    0.0700
23     H23     0.5293   -0.3651    0.8851 H        1 ZINC000008648554    0.0700
24     H24    -3.8658   -0.5208    0.0259 H        1 ZINC000008648554    0.1800
25     H25    -7.5960   -3.2186    0.0527 H        1 ZINC000008648554    0.1600
26     H26    -6.1039   -7.2063    0.0356 H        1 ZINC000008648554    0.1600
27     H27    -1.6831   -4.8931   -0.8934 H        1 ZINC000008648554    0.4100
@<TRIPOS>BOND
1     1     2     1
2     1     19    1
3     1     20    1
4     1     21    1
5     2     3     1
6     2     22    1
7     2     23    1
8     3     4     1
9     4     5     2
10    4     6     1
11    6     17    ar
12    6     7     ar
13    7     8     ar
14    7     24    1
15    8     9     ar
16    9     16    ar
17    9     10    ar
18    10    11    ar
19    10    25    1
20    11    12    1
21    11    13    ar
22    13    14    ar
23    13    26    1
24    14    15    1
25    14    16    ar
26    16    17    ar
27    17    18    1
28    18    27    1
@<TRIPOS>SUBSTRUCTURE
1   ZINC000008648554 1     RESIDUE    1   A     ZIN   1
