@<TRIPOS>MOLECULE
ZINC000000388238
  23   23    0    0    0
SMALL
USER_CHARGES
NO_NAME
@<TRIPOS>ATOM
    1 C1       -0.0176     1.4478     0.0100 C.3    1 <0>       0.0400
    2 O2        0.0021    -0.0041     0.0020 O.3    1 <0>      -0.3500
    3 C3        0.6007    -0.6020    -1.0467 C.2    1 <0>       0.5100
    4 O4        1.0927     0.0714    -1.9304 O.2    1 <0>      -0.5000
    5 C5        0.6586    -2.0737    -1.1220 C.ar   1 <0>      -0.1000
    6 C6        0.0883    -2.8496    -0.1097 C.ar   1 <0>      -0.0800
    7 C7        0.1433    -4.2247    -0.1816 C.ar   1 <0>      -0.1200
    8 C8        0.7646    -4.8423    -1.2584 C.ar   1 <0>       0.1200
    9 O9        0.8158    -6.1975    -1.3248 O.3    1 <0>      -0.4800
   10 C10       1.3359    -4.0740    -2.2724 C.ar   1 <0>       0.0900
   11 O11       1.9439    -4.6823    -3.3259 O.3    1 <0>      -0.3000
   12 C12       2.5076    -3.8338    -4.3281 C.3    1 <0>       0.0200
   13 C13       1.2794    -2.6958    -2.2096 C.ar   1 <0>      -0.1300
   14 H14       1.0050     1.8251     0.0023 H      1 <0>       0.0700
   15 H15      -0.5448     1.8089    -0.8731 H      1 <0>       0.0700
   16 H16      -0.5278     1.7993     0.9068 H      1 <0>       0.1100
   17 H17      -0.3954    -2.3717     0.7294 H      1 <0>       0.1500
   18 H18      -0.2976    -4.8232     0.6018 H      1 <0>       0.1500
   19 H19       0.0636    -6.5976    -1.7822 H      1 <0>       0.4000
   20 H20       1.7237    -3.2126    -4.7611 H      1 <0>       0.0600
   21 H21       3.2692    -3.1968    -3.8783 H      1 <0>       0.0600
   22 H22       2.9600    -4.4449    -5.1091 H      1 <0>       0.1100
   23 H23       1.7211    -2.0996    -2.9944 H      1 <0>       0.1500
@<TRIPOS>BOND
   1    1    2 1
   2    1   14 1
   3    1   15 1
   4    1   16 1
   5    2    3 1
   6    3    4 2
   7    3    5 1
   8    5   13 ar
   9    5    6 ar
  10    6    7 ar
  11    6   17 1
  12    7    8 ar
  13    7   18 1
  14    8    9 1
  15    8   10 ar
  16    9   19 1
  17   10   11 1
  18   10   13 ar
  19   11   12 1
  20   12   20 1
  21   12   21 1
  22   12   22 1
  23   13   23 1
