@<TRIPOS>MOLECULE
ZINC000000027361
25    26    1     0     0
SMALL
USER_CHARGES
@<TRIPOS>ATOM
1      C1     -0.0178    1.4608    0.0101 C.3      1 ZINC000000027361    0.1300
2      N2      0.0021   -0.0041    0.0020 N.am     1 ZINC000000027361   -0.6200
3      S3      0.0104   -1.0170   -1.3609 S.3      1 ZINC000000027361    0.2300
4      C4      0.0346   -2.4852   -0.4625 C.2      1 ZINC000000027361    0.4800
5      O5      0.0491   -3.6187   -0.9060 O.2      1 ZINC000000027361   -0.4300
6      N6      0.0349   -2.1191    0.8304 N.am     1 ZINC000000027361   -0.5600
7      C7      0.0532   -3.1052    1.9137 C.3      1 ZINC000000027361    0.1600
8      C8      1.4801   -3.4240    2.2788 C.ar     1 ZINC000000027361   -0.1300
9      C9      2.1448   -4.4518    1.6364 C.ar     1 ZINC000000027361   -0.0900
10     C10     3.4537   -4.7442    1.9712 C.ar     1 ZINC000000027361   -0.1200
11     C11     4.0981   -4.0086    2.9482 C.ar     1 ZINC000000027361   -0.1100
12     C12     3.4337   -2.9802    3.5900 C.ar     1 ZINC000000027361   -0.1300
13     C13     2.1262   -2.6849    3.2521 C.ar     1 ZINC000000027361   -0.0900
14     C14     0.0233   -0.8162    1.0703 C.2      1 ZINC000000027361    0.6800
15     O15     0.0228   -0.3770    2.2051 O.2      1 ZINC000000027361   -0.5200
16     H16     1.0048    1.8381    0.0023 H        1 ZINC000000027361    0.0800
17     H17    -0.5450    1.8219   -0.8730 H        1 ZINC000000027361    0.0900
18     H18    -0.5280    1.8123    0.9069 H        1 ZINC000000027361    0.1000
19     H19    -0.4623   -2.6986    2.7838 H        1 ZINC000000027361    0.1100
20     H20    -0.4498   -4.0148    1.5856 H        1 ZINC000000027361    0.1100
21     H21     1.6414   -5.0265    0.8731 H        1 ZINC000000027361    0.1300
22     H22     3.9728   -5.5477    1.4698 H        1 ZINC000000027361    0.1300
23     H23     5.1205   -4.2375    3.2104 H        1 ZINC000000027361    0.1200
24     H24     3.9370   -2.4056    4.3536 H        1 ZINC000000027361    0.1300
25     H25     1.6071   -1.8815    3.7535 H        1 ZINC000000027361    0.1300
@<TRIPOS>BOND
1     1     2     1
2     1     16    1
3     1     17    1
4     1     18    1
5     2     14    am
6     2     3     1
7     3     4     1
8     4     5     2
9     4     6     am
10    6     7     1
11    6     14    am
12    7     8     1
13    7     19    1
14    7     20    1
15    8     13    ar
16    8     9     ar
17    9     10    ar
18    9     21    1
19    10    11    ar
20    10    22    1
21    11    12    ar
22    11    23    1
23    12    13    ar
24    12    24    1
25    13    25    1
26    14    15    2
@<TRIPOS>SUBSTRUCTURE
1   ZINC000000027361 1     RESIDUE    1   A     ZIN   1
