@<TRIPOS>MOLECULE
ZINC000095576405
  65   69    0    0    0
SMALL
USER_CHARGES
NO_NAME
@<TRIPOS>ATOM
    1 C1        1.0629     1.5845     0.3124 C.3    1 <0>      -0.1700
    2 C2        1.2318     0.0641     0.3380 C.3    1 <0>       0.1300
    3 N3        1.2811    -0.4450    -1.0348 N.am   1 <0>      -0.7400
    4 C4        1.4265    -1.7660    -1.2589 C.2    1 <0>       0.7000
    5 O5        1.5168    -2.5352    -0.3217 O.2    1 <0>      -0.5700
    6 N6        1.4718    -2.2343    -2.5219 N.am   1 <0>      -0.6900
    7 C7        1.7174    -3.5894    -2.7560 C.ar   1 <0>       0.1900
    8 C8        1.2155    -4.5468    -1.8818 C.ar   1 <0>      -0.1300
    9 C9        1.4564    -5.8842    -2.1105 C.ar   1 <0>      -0.0500
   10 C10       2.2045    -6.2770    -3.2203 C.ar   1 <0>      -0.0700
   11 C11       2.4647    -7.7146    -3.4689 C.ar   1 <0>       0.3800
   12 N12       1.9742    -8.6145    -2.6292 N.ar   1 <0>      -0.5100
   13 C13       2.1828    -9.9127    -2.8176 C.ar   1 <0>       0.1900
   14 C14       2.9203   -10.3204    -3.9049 C.ar   1 <0>      -0.1500
   15 C15       3.1904   -11.7739    -4.1835 C.3    1 <0>      -0.0600
   16 C16       2.9124   -12.6041    -2.9290 C.3    1 <0>       0.0600
   17 N17       1.5825   -12.2429    -2.4131 N.3    1 <0>      -0.4600
   18 C18       1.1402   -13.1724    -1.4879 C.ar   1 <0>       0.4900
   19 N19       1.9135   -14.2059    -1.1891 N.ar   1 <0>      -0.5500
   20 C20       1.5209   -15.1120    -0.3089 C.ar   1 <0>       0.1700
   21 C21       0.2851   -14.9698     0.3024 C.ar   1 <0>      -0.2600
   22 C22      -0.4984   -13.8769    -0.0334 C.ar   1 <0>       0.1800
   23 N23      -0.0441   -13.0047    -0.9180 N.ar   1 <0>      -0.5300
   24 C24       1.6085   -10.8956    -1.8335 C.3    1 <0>       0.1200
   25 C25       3.4288    -9.3494    -4.7749 C.ar   1 <0>       0.3600
   26 N26       4.1786    -9.7194    -5.8796 N.3    1 <0>      -0.4800
   27 C27       3.5569    -9.2401    -7.1227 C.3    1 <0>       0.0200
   28 C28       4.3835    -9.7207    -8.3185 C.3    1 <0>       0.0700
   29 O29       5.7307    -9.2626    -8.1753 O.3    1 <0>      -0.3800
   30 C30       6.3669    -9.7113    -6.9756 C.3    1 <0>       0.0700
   31 C31       5.5605    -9.2307    -5.7662 C.3    1 <0>       0.0500
   32 H32       5.5601    -8.1411    -5.7387 H      1 <0>       0.0700
   33 C33       6.1917    -9.7739    -4.4827 C.3    1 <0>      -0.1500
   34 N34       3.1782    -8.0688    -4.5294 N.ar   1 <0>      -0.5400
   35 C35       2.7070    -5.3146    -4.0959 C.ar   1 <0>      -0.0500
   36 C36       2.4585    -3.9787    -3.8659 C.ar   1 <0>      -0.1600
   37 H37       1.9057     2.0349    -0.2120 H      1 <0>       0.0600
   38 H38       0.1366     1.8386    -0.2027 H      1 <0>       0.0600
   39 H39       1.0263     1.9632     1.3339 H      1 <0>       0.0800
   40 H40       2.1582    -0.1900     0.8532 H      1 <0>       0.0700
   41 H41       0.3891    -0.3863     0.8625 H      1 <0>       0.0700
   42 H42       1.2090     0.1688    -1.7825 H      1 <0>       0.4000
   43 H43       1.3339    -1.6304    -3.2683 H      1 <0>       0.4100
   44 H44       0.6366    -4.2421    -1.0224 H      1 <0>       0.1500
   45 H45       1.0666    -6.6275    -1.4309 H      1 <0>       0.1400
   46 H46       2.5443   -12.1136    -4.9931 H      1 <0>       0.0900
   47 H47       4.2327   -11.8989    -4.4769 H      1 <0>       0.1000
   48 H48       2.9319   -13.6646    -3.1802 H      1 <0>       0.1100
   49 H49       3.6685   -12.3901    -2.1736 H      1 <0>       0.0600
   50 H50       2.1556   -15.9525    -0.0697 H      1 <0>       0.1700
   51 H51      -0.0600   -15.6951     1.0244 H      1 <0>       0.1500
   52 H52      -1.4665   -13.7371     0.4245 H      1 <0>       0.1700
   53 H53       2.2210   -10.9027    -0.9319 H      1 <0>       0.0700
   54 H54       0.5934   -10.5949    -1.5742 H      1 <0>       0.1200
   55 H55       2.5437    -9.6347    -7.1985 H      1 <0>       0.0900
   56 H56       3.5245    -8.1506    -7.1169 H      1 <0>       0.0600
   57 H57       4.3713   -10.8100    -8.3551 H      1 <0>       0.0600
   58 H58       3.9588    -9.3201    -9.2390 H      1 <0>       0.1000
   59 H59       6.4124   -10.8004    -6.9732 H      1 <0>       0.0600
   60 H60       7.3767    -9.3040    -6.9248 H      1 <0>       0.1000
   61 H61       7.2429    -9.4881    -4.4456 H      1 <0>       0.0700
   62 H62       5.6718    -9.3599    -3.6187 H      1 <0>       0.0500
   63 H63       6.1100   -10.8608    -4.4694 H      1 <0>       0.0700
   64 H64       3.2868    -5.6162    -4.9556 H      1 <0>       0.1400
   65 H65       2.8474    -3.2331    -4.5436 H      1 <0>       0.1300
@<TRIPOS>BOND
   1    1    2 1
   2    1   37 1
   3    1   38 1
   4    1   39 1
   5    2    3 1
   6    2   40 1
   7    2   41 1
   8    3    4 am
   9    3   42 1
  10    4    5 2
  11    4    6 am
  12    6    7 1
  13    6   43 1
  14    7   36 ar
  15    7    8 ar
  16    8    9 ar
  17    8   44 1
  18    9   10 ar
  19    9   45 1
  20   10   11 1
  21   10   35 ar
  22   11   34 ar
  23   11   12 ar
  24   12   13 ar
  25   13   24 1
  26   13   14 ar
  27   14   15 1
  28   14   25 ar
  29   15   16 1
  30   15   46 1
  31   15   47 1
  32   16   17 1
  33   16   48 1
  34   16   49 1
  35   17   18 1
  36   17   24 1
  37   18   23 ar
  38   18   19 ar
  39   19   20 ar
  40   20   21 ar
  41   20   50 1
  42   21   22 ar
  43   21   51 1
  44   22   23 ar
  45   22   52 1
  46   24   53 1
  47   24   54 1
  48   25   26 1
  49   25   34 ar
  50   26   31 1
  51   26   27 1
  52   27   28 1
  53   27   55 1
  54   27   56 1
  55   28   29 1
  56   28   57 1
  57   28   58 1
  58   29   30 1
  59   30   31 1
  60   30   59 1
  61   30   60 1
  62   31   32 1
  63   31   33 1
  64   33   61 1
  65   33   62 1
  66   33   63 1
  67   35   36 ar
  68   35   64 1
  69   36   65 1
