@<TRIPOS>MOLECULE
ZINC000000783809
  46   49    0    0    0
SMALL
USER_CHARGES
NO_NAME
@<TRIPOS>ATOM
    1 N1       -0.0162     1.3436     0.0094 N.am   1 <0>      -0.8500
    2 C2        0.0021    -0.0041     0.0020 C.2    1 <0>       0.5000
    3 O3        1.0605    -0.5961    -0.0113 O.2    1 <0>      -0.5300
    4 C4       -1.2926    -0.7753     0.0102 C.3    1 <0>       0.0900
    5 N5       -1.0054    -2.2118    -0.0002 N.am   1 <0>      -0.5400
    6 C6       -0.8636    -2.9391    -1.1211 C.2    1 <0>       0.5100
    7 O7       -0.9485    -2.5311    -2.2602 O.2    1 <0>      -0.4500
    8 C8       -0.5775    -4.3634    -0.6951 C.3    1 <0>       0.1700
    9 O9       -1.6011    -5.2421    -1.1663 O.3    1 <0>      -0.5300
   10 C10       0.7915    -4.8123    -1.2103 C.3    1 <0>      -0.1800
   11 C11       0.8403    -4.6559    -2.7084 C.2    1 <0>       0.3800
   12 O12      -0.1246    -4.2277    -3.3052 O.2    1 <0>      -0.4100
   13 C13       2.0583    -5.0227    -3.4466 C.ar   1 <0>      -0.1600
   14 C14       3.1744    -5.5251    -2.7495 C.ar   1 <0>      -0.0800
   15 C15       4.3085    -5.8700    -3.4092 C.ar   1 <0>      -0.1100
   16 C16       4.3816    -5.7282    -4.8075 C.ar   1 <0>      -0.0300
   17 C17       5.5456    -6.0797    -5.5107 C.ar   1 <0>      -0.1100
   18 C18       5.5876    -5.9321    -6.8637 C.ar   1 <0>      -0.1000
   19 C19       4.4910    -5.4362    -7.5665 C.ar   1 <0>      -0.1200
   20 C20       3.3462    -5.0846    -6.9201 C.ar   1 <0>      -0.0900
   21 C21       3.2651    -5.2235    -5.5224 C.ar   1 <0>      -0.0700
   22 C22       2.0984    -4.8768    -4.8268 C.ar   1 <0>      -0.0300
   23 C23      -0.5846    -4.3037     0.8150 C.ar   1 <0>      -0.1400
   24 C24      -0.3912    -5.2552     1.7905 C.ar   1 <0>      -0.0400
   25 C25      -0.4584    -4.8980     3.1263 C.ar   1 <0>      -0.1400
   26 C26      -0.7196    -3.5859     3.4751 C.ar   1 <0>      -0.0700
   27 C27      -0.9143    -2.6301     2.4991 C.ar   1 <0>      -0.1400
   28 C28      -0.8419    -2.9806     1.1526 C.ar   1 <0>       0.1700
   29 H29       0.8172     1.8399     0.0041 H      1 <0>       0.4100
   30 H30      -0.8627     1.8171     0.0160 H      1 <0>       0.4000
   31 H31      -1.8592    -0.5245     0.9070 H      1 <0>       0.1200
   32 H32      -1.8762    -0.5150    -0.8728 H      1 <0>       0.1200
   33 H33      -1.6808    -5.2724    -2.1295 H      1 <0>       0.3900
   34 H34       1.5697    -4.1994    -0.7555 H      1 <0>       0.1200
   35 H35       0.9531    -5.8580    -0.9487 H      1 <0>       0.1200
   36 H36       3.1269    -5.6367    -1.6763 H      1 <0>       0.1300
   37 H37       5.1563    -6.2535    -2.8608 H      1 <0>       0.1300
   38 H38       6.4039    -6.4651    -4.9805 H      1 <0>       0.1300
   39 H39       6.4847    -6.2032    -7.4004 H      1 <0>       0.1300
   40 H40       4.5508    -5.3291    -8.6395 H      1 <0>       0.1300
   41 H41       2.5043    -4.7010    -7.4772 H      1 <0>       0.1300
   42 H42       1.2395    -4.4959    -5.3595 H      1 <0>       0.1400
   43 H43      -0.1877    -6.2792     1.5142 H      1 <0>       0.1300
   44 H44      -0.3074    -5.6425     3.8940 H      1 <0>       0.1300
   45 H45      -0.7719    -3.3075     4.5173 H      1 <0>       0.1300
   46 H46      -1.1186    -1.6074     2.7795 H      1 <0>       0.1300
@<TRIPOS>BOND
   1    1    2 am
   2    1   29 1
   3    1   30 1
   4    2    3 2
   5    2    4 1
   6    4    5 1
   7    4   31 1
   8    4   32 1
   9    5   28 1
  10    5    6 am
  11    6    7 2
  12    6    8 1
  13    8    9 1
  14    8   10 1
  15    8   23 1
  16    9   33 1
  17   10   11 1
  18   10   34 1
  19   10   35 1
  20   11   12 2
  21   11   13 1
  22   13   22 ar
  23   13   14 ar
  24   14   15 ar
  25   14   36 1
  26   15   16 ar
  27   15   37 1
  28   16   21 ar
  29   16   17 ar
  30   17   18 ar
  31   17   38 1
  32   18   19 ar
  33   18   39 1
  34   19   20 ar
  35   19   40 1
  36   20   21 ar
  37   20   41 1
  38   21   22 ar
  39   22   42 1
  40   23   28 ar
  41   23   24 ar
  42   24   25 ar
  43   24   43 1
  44   25   26 ar
  45   25   44 1
  46   26   27 ar
  47   26   45 1
  48   27   28 ar
  49   27   46 1
