@<TRIPOS>MOLECULE
ZINC000058649424
89    94    1     0     0
SMALL
USER_CHARGES
@<TRIPOS>ATOM
1      C1      0.5146   -1.9298   -0.9155 C.3      1 ZINC000058649424   -0.1400
2      C2     -0.1163   -1.6774    0.4553 C.3      1 ZINC000058649424   -0.1100
3      C3      0.8644   -0.9422    1.3320 C.ar     1 ZINC000058649424   -0.0600
4      C4      2.2221   -1.1050    1.1381 C.ar     1 ZINC000058649424   -0.1200
5      C5      3.1227   -0.4303    1.9418 C.ar     1 ZINC000058649424   -0.1100
6      C6      2.6676    0.4092    2.9419 C.ar     1 ZINC000058649424   -0.1100
7      C7      1.3112    0.5761    3.1414 C.ar     1 ZINC000058649424   -0.0900
8      C8      0.8161    1.4908    4.2319 C.3      1 ZINC000058649424   -0.0900
9      C9      0.5301    0.6729    5.4930 C.3      1 ZINC000058649424   -0.1500
10     C10     0.4040   -0.0956    2.3322 C.ar     1 ZINC000058649424    0.1300
11     N11    -0.9702    0.0711    2.5315 N.am     1 ZINC000058649424   -0.6600
12     C12    -1.7635    0.4194    1.4991 C.2      1 ZINC000058649424    0.6000
13     O13    -1.2790    0.6291    0.4040 O.2      1 ZINC000058649424   -0.4900
14     C14    -3.2217    0.5462    1.6982 C.2      1 ZINC000058649424   -0.0100
15     N15    -3.8812    0.3543    2.8312 N.2      1 ZINC000058649424   -0.2400
16     N16    -5.1458    0.5468    2.6569 N.pl3    1 ZINC000058649424   -0.2300
17     C17    -6.1679    0.4311    3.7000 C.3      1 ZINC000058649424    0.0900
18     C18    -5.3836    0.8706    1.3711 C.2      1 ZINC000058649424    0.0300
19     C19    -4.1631    0.8966    0.7301 C.2      1 ZINC000058649424   -0.1000
20     C20    -4.0216    1.2525   -0.7212 C.3      1 ZINC000058649424   -0.0500
21     C21    -5.2700    0.8080   -1.4842 C.3      1 ZINC000058649424   -0.0700
22     C22    -6.5391    1.1778   -0.7733 C.ar     1 ZINC000058649424   -0.2000
23     C23    -7.6751    1.5161   -1.4840 C.ar     1 ZINC000058649424    0.1900
24     N24    -8.7857    1.8087   -0.8241 N.ar     1 ZINC000058649424   -0.5600
25     C25    -8.8302    1.7803    0.5001 C.ar     1 ZINC000058649424    0.5600
26     N26   -10.0206    2.0779    1.1435 N.pl3    1 ZINC000058649424   -0.6300
27     C27   -11.1167    2.5288    0.4087 C.ar     1 ZINC000058649424    0.2100
28     C28   -10.9181    3.2926   -0.7354 C.ar     1 ZINC000058649424   -0.0900
29     C29   -11.9981    3.7400   -1.4643 C.ar     1 ZINC000058649424   -0.0700
30     C30   -13.2963    3.4265   -1.0542 C.ar     1 ZINC000058649424   -0.1300
31     C31   -14.4535    3.9050   -1.8346 C.2      1 ZINC000058649424    0.5700
32     O32   -15.5830    3.6315   -1.4768 O.2      1 ZINC000058649424   -0.5200
33     N33   -14.2587    4.6451   -2.9439 N.am     1 ZINC000058649424   -0.7300
34     C34   -15.4077    5.1202   -3.7187 C.3      1 ZINC000058649424    0.1400
35     C35   -15.9203    6.4339   -3.1214 C.3      1 ZINC000058649424   -0.1600
36     C36   -17.0688    6.9651   -3.9817 C.3      1 ZINC000058649424    0.0000
37     N37   -16.5917    7.2011   -5.3496 N.4      1 ZINC000058649424   -0.3900
38     H38   -15.8118    7.8408   -5.3271 H        1 ZINC000058649424    0.4200
39     C39   -17.6767    7.7821   -6.1516 C.3      1 ZINC000058649424   -0.0500
40     C40   -16.1654    5.9333   -5.9541 C.3      1 ZINC000058649424    0.0000
41     C41   -14.9821    5.3623   -5.1697 C.3      1 ZINC000058649424   -0.1600
42     C42   -13.4971    2.6581    0.0966 C.ar     1 ZINC000058649424   -0.1000
43     C43   -12.4116    2.2074    0.8203 C.ar     1 ZINC000058649424    0.0700
44     O44   -12.6035    1.4595    1.9398 O.3      1 ZINC000058649424   -0.3100
45     C45   -13.9553    1.1784    2.3084 C.3      1 ZINC000058649424    0.6100
46     F46   -14.5841    0.4761    1.2747 F        1 ZINC000058649424   -0.1600
47     F47   -13.9696    0.4048    3.4739 F        1 ZINC000058649424   -0.1200
48     F48   -14.6355    2.3793    2.5373 F        1 ZINC000058649424   -0.1600
49     N49    -7.7618    1.4732    1.2239 N.ar     1 ZINC000058649424   -0.5500
50     C50    -6.6152    1.1902    0.6291 C.ar     1 ZINC000058649424    0.3000
51     H51     1.4225   -2.5208   -0.7944 H        1 ZINC000058649424    0.0500
52     H52    -0.1904   -2.4719   -1.5457 H        1 ZINC000058649424    0.0500
53     H53     0.7613   -0.9765   -1.3830 H        1 ZINC000058649424    0.0600
54     H54    -1.0178   -1.0765    0.3353 H        1 ZINC000058649424    0.1000
55     H55    -0.3737   -2.6302    0.9178 H        1 ZINC000058649424    0.0700
56     H56     2.5808   -1.7602    0.3581 H        1 ZINC000058649424    0.1300
57     H57     4.1839   -0.5597    1.7883 H        1 ZINC000058649424    0.1200
58     H58     3.3735    0.9347    3.5680 H        1 ZINC000058649424    0.1300
59     H59     1.5762    2.2409    4.4500 H        1 ZINC000058649424    0.0800
60     H60    -0.0986    1.9850    3.9043 H        1 ZINC000058649424    0.0700
61     H61     1.4448    0.1787    5.8207 H        1 ZINC000058649424    0.0600
62     H62     0.1720    1.3345    6.2817 H        1 ZINC000058649424    0.0600
63     H63    -0.2300   -0.0772    5.2749 H        1 ZINC000058649424    0.0500
64     H64    -1.3523   -0.0638    3.4128 H        1 ZINC000058649424    0.4100
65     H65    -6.3010    1.3972    4.1870 H        1 ZINC000058649424    0.0900
66     H66    -7.1105    0.1172    3.2518 H        1 ZINC000058649424    0.1000
67     H67    -5.8525   -0.3071    4.4374 H        1 ZINC000058649424    0.1000
68     H68    -3.9009    2.3313   -0.8200 H        1 ZINC000058649424    0.0800
69     H69    -3.1464    0.7508   -1.1340 H        1 ZINC000058649424    0.1100
70     H70    -5.2675    1.2767   -2.4682 H        1 ZINC000058649424    0.0900
71     H71    -5.2393   -0.2742   -1.6110 H        1 ZINC000058649424    0.0900
72     H72    -7.6574    1.5418   -2.5636 H        1 ZINC000058649424    0.1800
73     H73   -10.0916    1.9725    2.1052 H        1 ZINC000058649424    0.4300
74     H74    -9.9151    3.5361   -1.0534 H        1 ZINC000058649424    0.1600
75     H75   -11.8411    4.3337   -2.3527 H        1 ZINC000058649424    0.1400
76     H76   -13.3577    4.8633   -3.2293 H        1 ZINC000058649424    0.4100
77     H77   -16.2002    4.3723   -3.6913 H        1 ZINC000058649424    0.1100
78     H78   -16.2769    6.2576   -2.1066 H        1 ZINC000058649424    0.1200
79     H79   -15.1118    7.1647   -3.1020 H        1 ZINC000058649424    0.0900
80     H80   -17.8767    6.2337   -4.0003 H        1 ZINC000058649424    0.1300
81     H81   -17.4362    7.9003   -3.5591 H        1 ZINC000058649424    0.1400
82     H82   -17.9908    8.7268   -5.7078 H        1 ZINC000058649424    0.1200
83     H83   -17.3235    7.9578   -7.1677 H        1 ZINC000058649424    0.1200
84     H84   -18.5209    7.0930   -6.1745 H        1 ZINC000058649424    0.1200
85     H85   -16.9926    5.2238   -5.9306 H        1 ZINC000058649424    0.1300
86     H86   -15.8659    6.1066   -6.9877 H        1 ZINC000058649424    0.1400
87     H87   -14.1542    6.0709   -5.1928 H        1 ZINC000058649424    0.1000
88     H88   -14.6682    4.4201   -5.6190 H        1 ZINC000058649424    0.1200
89     H89   -14.4995    2.4144    0.4164 H        1 ZINC000058649424    0.1500
@<TRIPOS>BOND
1     1     2     1
2     1     51    1
3     1     52    1
4     1     53    1
5     2     3     1
6     2     54    1
7     2     55    1
8     3     10    ar
9     3     4     ar
10    4     5     ar
11    4     56    1
12    5     6     ar
13    5     57    1
14    6     7     ar
15    6     58    1
16    7     8     1
17    7     10    ar
18    8     9     1
19    8     59    1
20    8     60    1
21    9     61    1
22    9     62    1
23    9     63    1
24    10    11    1
25    11    12    am
26    11    64    1
27    12    13    2
28    12    14    1
29    14    19    1
30    14    15    2
31    15    16    1
32    16    17    1
33    16    18    1
34    17    65    1
35    17    66    1
36    17    67    1
37    18    50    1
38    18    19    2
39    19    20    1
40    20    21    1
41    20    68    1
42    20    69    1
43    21    22    1
44    21    70    1
45    21    71    1
46    22    50    ar
47    22    23    ar
48    23    24    ar
49    23    72    1
50    24    25    ar
51    25    26    1
52    25    49    ar
53    26    27    1
54    26    73    1
55    27    43    ar
56    27    28    ar
57    28    29    ar
58    28    74    1
59    29    30    ar
60    29    75    1
61    30    31    1
62    30    42    ar
63    31    32    2
64    31    33    am
65    33    34    1
66    33    76    1
67    34    41    1
68    34    35    1
69    34    77    1
70    35    36    1
71    35    78    1
72    35    79    1
73    36    37    1
74    36    80    1
75    36    81    1
76    37    38    1
77    37    39    1
78    37    40    1
79    39    82    1
80    39    83    1
81    39    84    1
82    40    41    1
83    40    85    1
84    40    86    1
85    41    87    1
86    41    88    1
87    42    43    ar
88    42    89    1
89    43    44    1
90    44    45    1
91    45    46    1
92    45    47    1
93    45    48    1
94    49    50    ar
@<TRIPOS>SUBSTRUCTURE
1   ZINC000058649424 1     RESIDUE    1   A     ZIN   1
