@<TRIPOS>MOLECULE
ZINC000004214704
87    92    1     0     0
SMALL
USER_CHARGES
@<TRIPOS>ATOM
1      C1     -0.1800    1.6246   -0.3176 C.3      1 ZINC000004214704    0.0200
2      O2     -0.1398    0.1965   -0.3450 O.3      1 ZINC000004214704   -0.3000
3      C3     -1.3325   -0.4556   -0.3048 C.ar     1 ZINC000004214704    0.1300
4      C4     -2.5148    0.2606   -0.2462 C.ar     1 ZINC000004214704   -0.1700
5      C5     -3.7330   -0.4005   -0.2063 C.ar     1 ZINC000004214704   -0.0900
6      C6     -3.7713   -1.7788   -0.2264 C.ar     1 ZINC000004214704   -0.1300
7      C7     -2.5880   -2.5013   -0.2827 C.ar     1 ZINC000004214704   -0.1600
8      C8     -1.3702   -1.8469   -0.3282 C.ar     1 ZINC000004214704    0.1200
9      O9     -0.2136   -2.5602   -0.3838 O.3      1 ZINC000004214704   -0.3000
10     C10    -0.3296   -3.9845   -0.3923 C.3      1 ZINC000004214704    0.0200
11     C11    -5.0733   -2.5352   -0.1937 C.3      1 ZINC000004214704    0.0500
12     N12    -6.1561   -1.6781    0.2969 N.4      1 ZINC000004214704   -0.3800
13     H13    -5.9876   -1.4409    1.2630 H        1 ZINC000004214704    0.4300
14     C14    -7.4365   -2.3889    0.1812 C.3      1 ZINC000004214704   -0.0100
15     C15    -7.4309   -3.6042    1.1107 C.3      1 ZINC000004214704   -0.1000
16     C16    -8.7444   -4.3333    0.9921 C.ar     1 ZINC000004214704   -0.1300
17     C17    -9.8006   -3.9906    1.8163 C.ar     1 ZINC000004214704   -0.0800
18     C18   -11.0055   -4.6572    1.7105 C.ar     1 ZINC000004214704   -0.1500
19     C19   -11.1559   -5.6724    0.7746 C.ar     1 ZINC000004214704    0.1700
20     N20   -12.3749   -6.3491    0.6646 N.am     1 ZINC000004214704   -0.6700
21     C21   -12.4058   -7.6082    0.1848 C.2      1 ZINC000004214704    0.5800
22     O22   -11.3667   -8.1934   -0.0547 O.2      1 ZINC000004214704   -0.5300
23     C23   -13.6973   -8.2754   -0.0493 C.ar     1 ZINC000004214704   -0.1900
24     C24   -14.8929   -7.5675    0.1129 C.ar     1 ZINC000004214704   -0.1200
25     C25   -16.1005   -8.1967   -0.1081 C.ar     1 ZINC000004214704    0.0800
26     O26   -17.2633   -7.5078    0.0493 O.3      1 ZINC000004214704   -0.3000
27     C27   -17.1577   -6.1386    0.4443 C.3      1 ZINC000004214704    0.0200
28     C28   -16.1329   -9.5376   -0.4930 C.ar     1 ZINC000004214704    0.1700
29     O29   -17.3252  -10.1507   -0.7088 O.3      1 ZINC000004214704   -0.2900
30     C30   -17.2868  -11.5244   -1.1008 C.3      1 ZINC000004214704    0.0200
31     C31   -14.9532  -10.2459   -0.6563 C.ar     1 ZINC000004214704   -0.2100
32     C32   -13.7335   -9.6229   -0.4418 C.ar     1 ZINC000004214704    0.2400
33     N33   -12.5468  -10.3348   -0.6065 N.am     1 ZINC000004214704   -0.6500
34     C34   -12.5103  -11.4035   -1.4268 C.2      1 ZINC000004214704    0.5700
35     O35   -13.4812  -11.6847   -2.1023 O.2      1 ZINC000004214704   -0.5100
36     C36   -11.2907  -12.2332   -1.5052 C.ar     1 ZINC000004214704   -0.2000
37     C37   -10.1668  -11.9167   -0.7223 C.ar     1 ZINC000004214704    0.1600
38     N38    -9.0741  -12.6343   -0.7721 N.ar     1 ZINC000004214704   -0.4700
39     C39    -8.9708  -13.7042   -1.5688 C.ar     1 ZINC000004214704    0.1500
40     C40    -7.7880  -14.4621   -1.6070 C.ar     1 ZINC000004214704   -0.1000
41     C41    -7.7055  -15.5471   -2.4249 C.ar     1 ZINC000004214704   -0.0800
42     C42    -8.7779  -15.9241   -3.2308 C.ar     1 ZINC000004214704   -0.1200
43     C43    -9.9404  -15.2156   -3.2219 C.ar     1 ZINC000004214704   -0.0800
44     C44   -10.0611  -14.0895   -2.3896 C.ar     1 ZINC000004214704   -0.1200
45     C45   -11.2469  -13.3372   -2.3498 C.ar     1 ZINC000004214704    0.0300
46     C46   -10.0933   -6.0139   -0.0519 C.ar     1 ZINC000004214704   -0.1300
47     C47    -8.8926   -5.3398    0.0555 C.ar     1 ZINC000004214704   -0.0800
48     C48    -6.1981   -0.4498   -0.5113 C.3      1 ZINC000004214704    0.0000
49     C49    -4.9964    0.4195   -0.1391 C.3      1 ZINC000004214704   -0.1000
50     H50     0.8361    2.0175   -0.3547 H        1 ZINC000004214704    0.1100
51     H51    -0.7420    1.9889   -1.1775 H        1 ZINC000004214704    0.0600
52     H52    -0.6646    1.9569    0.6005 H        1 ZINC000004214704    0.0600
53     H53    -2.4887    1.3402   -0.2312 H        1 ZINC000004214704    0.1500
54     H54    -2.6182   -3.5808   -0.2957 H        1 ZINC000004214704    0.1500
55     H55    -0.8331   -4.3134    0.5168 H        1 ZINC000004214704    0.0600
56     H56    -0.9084   -4.2967   -1.2615 H        1 ZINC000004214704    0.0600
57     H57     0.6643   -4.4297   -0.4385 H        1 ZINC000004214704    0.1100
58     H58    -5.3147   -2.8787   -1.1997 H        1 ZINC000004214704    0.1400
59     H59    -4.9713   -3.3977    0.4649 H        1 ZINC000004214704    0.1400
60     H60    -8.2500   -1.7201    0.4625 H        1 ZINC000004214704    0.1300
61     H61    -7.5771   -2.7192   -0.8479 H        1 ZINC000004214704    0.1300
62     H62    -6.6174   -4.2729    0.8294 H        1 ZINC000004214704    0.0900
63     H63    -7.2904   -3.2738    2.1399 H        1 ZINC000004214704    0.0900
64     H64    -9.6830   -3.2011    2.5437 H        1 ZINC000004214704    0.1300
65     H65   -11.8298   -4.3896    2.3549 H        1 ZINC000004214704    0.1300
66     H66   -13.1981   -5.9123    0.9335 H        1 ZINC000004214704    0.4100
67     H67   -14.8706   -6.5297    0.4111 H        1 ZINC000004214704    0.1400
68     H68   -18.1552   -5.7082    0.5334 H        1 ZINC000004214704    0.1100
69     H69   -16.6478   -6.0760    1.4057 H        1 ZINC000004214704    0.0600
70     H70   -16.5897   -5.5870   -0.3048 H        1 ZINC000004214704    0.0500
71     H71   -16.7926  -12.1098   -0.3254 H        1 ZINC000004214704    0.0600
72     H72   -18.3038  -11.8911   -1.2401 H        1 ZINC000004214704    0.1100
73     H73   -16.7347  -11.6202   -2.0357 H        1 ZINC000004214704    0.0700
74     H74   -14.9838  -11.2835   -0.9543 H        1 ZINC000004214704    0.1700
75     H75   -11.7470  -10.0612   -0.1306 H        1 ZINC000004214704    0.4200
76     H76   -10.2062  -11.0610   -0.0646 H        1 ZINC000004214704    0.1600
77     H77    -6.9467  -14.1842   -0.9894 H        1 ZINC000004214704    0.1400
78     H78    -6.7935  -16.1251   -2.4499 H        1 ZINC000004214704    0.1400
79     H79    -8.6856  -16.7891   -3.8708 H        1 ZINC000004214704    0.1300
80     H80   -10.7649  -15.5170   -3.8510 H        1 ZINC000004214704    0.1400
81     H81   -12.0973  -13.6060   -2.9589 H        1 ZINC000004214704    0.1600
82     H82   -10.2069   -6.8031   -0.7804 H        1 ZINC000004214704    0.1500
83     H83    -8.0660   -5.6046   -0.5872 H        1 ZINC000004214704    0.1300
84     H84    -6.1506   -0.7063   -1.5696 H        1 ZINC000004214704    0.1300
85     H85    -7.1205    0.0929   -0.3046 H        1 ZINC000004214704    0.1400
86     H86    -5.1262    0.8031    0.8729 H        1 ZINC000004214704    0.1000
87     H87    -4.9237    1.2548   -0.8357 H        1 ZINC000004214704    0.1200
@<TRIPOS>BOND
1     1     2     1
2     1     50    1
3     1     51    1
4     1     52    1
5     2     3     1
6     3     8     ar
7     3     4     ar
8     4     5     ar
9     4     53    1
10    5     49    1
11    5     6     ar
12    6     7     ar
13    6     11    1
14    7     8     ar
15    7     54    1
16    8     9     1
17    9     10    1
18    10    55    1
19    10    56    1
20    10    57    1
21    11    12    1
22    11    58    1
23    11    59    1
24    12    13    1
25    12    14    1
26    12    48    1
27    14    15    1
28    14    60    1
29    14    61    1
30    15    16    1
31    15    62    1
32    15    63    1
33    16    47    ar
34    16    17    ar
35    17    18    ar
36    17    64    1
37    18    19    ar
38    18    65    1
39    19    20    1
40    19    46    ar
41    20    21    am
42    20    66    1
43    21    22    2
44    21    23    1
45    23    32    ar
46    23    24    ar
47    24    25    ar
48    24    67    1
49    25    26    1
50    25    28    ar
51    26    27    1
52    27    68    1
53    27    69    1
54    27    70    1
55    28    29    1
56    28    31    ar
57    29    30    1
58    30    71    1
59    30    72    1
60    30    73    1
61    31    32    ar
62    31    74    1
63    32    33    1
64    33    34    am
65    33    75    1
66    34    35    2
67    34    36    1
68    36    45    ar
69    36    37    ar
70    37    38    ar
71    37    76    1
72    38    39    ar
73    39    44    ar
74    39    40    ar
75    40    41    ar
76    40    77    1
77    41    42    ar
78    41    78    1
79    42    43    ar
80    42    79    1
81    43    44    ar
82    43    80    1
83    44    45    ar
84    45    81    1
85    46    47    ar
86    46    82    1
87    47    83    1
88    48    49    1
89    48    84    1
90    48    85    1
91    49    86    1
92    49    87    1
@<TRIPOS>SUBSTRUCTURE
1   ZINC000004214704 1     RESIDUE    1   A     ZIN   1
