@<TRIPOS>MOLECULE
ZINC000045260128
  36   38    0    0    0
SMALL
USER_CHARGES
NO_NAME
@<TRIPOS>ATOM
    1 C1       -0.0187     1.5258     0.0104 C.3    1 <0>      -0.1500
    2 C2        0.0021    -0.0041     0.0020 C.3    1 <0>      -0.0900
    3 C3       -1.4117    -0.5257     0.0127 C.ar   1 <0>      -0.0300
    4 C4       -2.1124    -0.6664    -1.1956 C.ar   1 <0>      -0.0200
    5 C5       -1.5137    -0.3275    -2.4218 C.ar   1 <0>      -0.1900
    6 C6       -2.2158    -0.4737    -3.5818 C.ar   1 <0>       0.1400
    7 O7       -1.6334    -0.1455    -4.7647 O.3    1 <0>      -0.3000
    8 C8       -0.2914     0.3429    -4.7136 C.3    1 <0>       0.0200
    9 C9       -3.5341    -0.9601    -3.5687 C.ar   1 <0>       0.1400
   10 O10      -4.2111    -1.0961    -4.7386 O.3    1 <0>      -0.3000
   11 C11      -5.5477    -1.5955    -4.6604 C.3    1 <0>       0.0200
   12 C12      -4.1420    -1.2979    -2.3945 C.ar   1 <0>      -0.1900
   13 C13      -3.4464    -1.1585    -1.1841 C.ar   1 <0>       0.0200
   14 C14      -4.0413    -1.4965     0.0456 C.ar   1 <0>      -0.1300
   15 C15      -5.3605    -2.0214     0.4419 C.2    1 <0>       0.5800
   16 O16      -6.2742    -2.2861    -0.3137 O.2    1 <0>      -0.4600
   17 N17      -5.3836    -2.1589     1.7799 N.am   1 <0>      -0.6800
   18 C18      -4.2122    -1.7788     2.3210 C.2    1 <0>       0.5800
   19 O19      -3.9400    -1.7924     3.5045 O.2    1 <0>      -0.4600
   20 C20      -3.3111    -1.3414     1.2320 C.ar   1 <0>      -0.1200
   21 C21      -2.0009    -0.8636     1.1966 C.ar   1 <0>      -0.0700
   22 H22       1.0039     1.9031     0.0027 H      1 <0>       0.0700
   23 H23      -0.5459     1.8868    -0.8726 H      1 <0>       0.0600
   24 H24      -0.5289     1.8773     0.9072 H      1 <0>       0.0600
   25 H25       0.5123    -0.3556    -0.8948 H      1 <0>       0.0800
   26 H26       0.5293    -0.3651     0.8851 H      1 <0>       0.0800
   27 H27      -0.5012     0.0477    -2.4450 H      1 <0>       0.1500
   28 H28      -0.2574     1.2492    -4.1089 H      1 <0>       0.0600
   29 H29       0.3543    -0.4147    -4.2694 H      1 <0>       0.0600
   30 H30       0.0525     0.5667    -5.7234 H      1 <0>       0.1100
   31 H31      -5.5389    -2.5881    -4.2100 H      1 <0>       0.0600
   32 H32      -6.1511    -0.9245    -4.0491 H      1 <0>       0.0600
   33 H33      -5.9726    -1.6549    -5.6624 H      1 <0>       0.1100
   34 H34      -5.1556    -1.6707    -2.3970 H      1 <0>       0.1600
   35 H35      -6.1428    -2.4875     2.2863 H      1 <0>       0.4300
   36 H36      -1.4467    -0.7577     2.1175 H      1 <0>       0.1400
@<TRIPOS>BOND
   1    1    2 1
   2    1   22 1
   3    1   23 1
   4    1   24 1
   5    2    3 1
   6    2   25 1
   7    2   26 1
   8    3   21 ar
   9    3    4 ar
  10    4   13 ar
  11    4    5 ar
  12    5    6 ar
  13    5   27 1
  14    6    7 1
  15    6    9 ar
  16    7    8 1
  17    8   28 1
  18    8   29 1
  19    8   30 1
  20    9   10 1
  21    9   12 ar
  22   10   11 1
  23   11   31 1
  24   11   32 1
  25   11   33 1
  26   12   13 ar
  27   12   34 1
  28   13   14 ar
  29   14   20 ar
  30   14   15 1
  31   15   16 2
  32   15   17 am
  33   17   18 am
  34   17   35 1
  35   18   19 2
  36   18   20 1
  37   20   21 ar
  38   21   36 1
