@<TRIPOS>MOLECULE
ZINC000040899799
72    75    1     0     0
SMALL
USER_CHARGES
@<TRIPOS>ATOM
1      N1     -0.2873    1.4607   -0.0129 N.pl3    1 ZINC000040899799   -0.7900
2      C2     -0.2480    0.1300   -0.0547 C.cat    1 ZINC000040899799    0.7400
3      N3      0.9242   -0.5005   -0.1054 N.pl3    1 ZINC000040899799   -0.7900
4      H4      0.9528   -1.4696   -0.1358 H        1 ZINC000040899799    0.4400
5      H5      1.7493    0.0095   -0.1118 H        1 ZINC000040899799    0.4400
6      N6     -1.4115   -0.5892   -0.0455 N.pl3    1 ZINC000040899799   -0.6900
7      C7     -2.7008    0.1042    0.0102 C.3      1 ZINC000040899799    0.1000
8      C8     -3.8335   -0.9243    0.0090 C.3      1 ZINC000040899799   -0.1500
9      C9     -5.1800   -0.2002    0.0672 C.3      1 ZINC000040899799    0.1100
10     N10    -6.2646   -1.1850    0.0661 N.pl3    1 ZINC000040899799   -0.4500
11     C11    -6.9490   -1.6264   -1.0495 C.2      1 ZINC000040899799    0.0300
12     C12    -6.7056   -1.1818   -2.4299 C.2      1 ZINC000040899799    0.5800
13     O13    -5.7804   -0.4303   -2.6727 O.2      1 ZINC000040899799   -0.5400
14     N14    -7.5077   -1.6070   -3.4261 N.am     1 ZINC000040899799   -0.7100
15     C15    -7.2012   -1.2542   -4.8145 C.3      1 ZINC000040899799    0.1300
16     C16    -8.2599   -1.8575   -5.7397 C.3      1 ZINC000040899799   -0.0500
17     C17    -7.9446   -1.4945   -7.1680 C.2      1 ZINC000040899799   -0.1800
18     C18    -8.4412   -0.4541   -7.8557 C.2      1 ZINC000040899799    0.0700
19     N19    -7.9268   -0.4448   -9.1237 N.pl3    1 ZINC000040899799   -0.5900
20     C20    -7.0648   -1.5060   -9.2870 C.ar     1 ZINC000040899799    0.0900
21     C21    -6.2906   -1.9559  -10.3512 C.ar     1 ZINC000040899799   -0.1300
22     C22    -5.5097   -3.0812  -10.2018 C.ar     1 ZINC000040899799   -0.1000
23     C23    -5.4868   -3.7723   -8.9984 C.ar     1 ZINC000040899799   -0.1400
24     C24    -6.2396   -3.3478   -7.9397 C.ar     1 ZINC000040899799   -0.0800
25     C25    -7.0332   -2.2065   -8.0671 C.ar     1 ZINC000040899799   -0.1000
26     C26    -7.8828   -2.5368   -0.6683 C.2      1 ZINC000040899799   -0.1300
27     C27    -7.7940   -2.6836    0.7373 C.ar     1 ZINC000040899799   -0.1000
28     C28    -8.4904   -3.4664    1.6669 C.ar     1 ZINC000040899799   -0.0700
29     C29    -8.1655   -3.3872    3.0061 C.ar     1 ZINC000040899799    0.1000
30     N30    -8.8597   -4.1686    3.9394 N.am     1 ZINC000040899799   -0.6500
31     C31    -8.2146   -4.6700    5.0113 C.2      1 ZINC000040899799    0.5100
32     O32    -7.0545   -4.3783    5.2121 O.2      1 ZINC000040899799   -0.5100
33     C33    -8.9346   -5.5931    5.9603 C.3      1 ZINC000040899799    0.0800
34     N34    -8.0236   -5.9971    7.0341 N.pl3    1 ZINC000040899799   -0.6900
35     C35    -8.4590   -6.8398    8.0196 C.cat    1 ZINC000040899799    0.7500
36     N36    -9.7114   -7.2930    8.0030 N.pl3    1 ZINC000040899799   -0.7900
37     N37    -7.6307   -7.2071    8.9959 N.pl3    1 ZINC000040899799   -0.7900
38     H38    -7.9395   -7.8046    9.6948 H        1 ZINC000040899799    0.4400
39     H39    -6.7187   -6.8770    9.0079 H        1 ZINC000040899799    0.4400
40     C40    -7.1492   -2.5336    3.4349 C.ar     1 ZINC000040899799   -0.0800
41     C41    -6.4575   -1.7594    2.5319 C.ar     1 ZINC000040899799   -0.1100
42     C42    -6.7653   -1.8272    1.1761 C.ar     1 ZINC000040899799    0.1100
43     H43     0.5378    1.9707   -0.0194 H        1 ZINC000040899799    0.4400
44     H44    -1.1410    1.9199    0.0200 H        1 ZINC000040899799    0.4400
45     H45    -1.3829   -1.5583   -0.0760 H        1 ZINC000040899799    0.4400
46     H46    -2.7532    0.7013    0.9206 H        1 ZINC000040899799    0.0900
47     H47    -2.8008    0.7557   -0.8579 H        1 ZINC000040899799    0.1000
48     H48    -3.7812   -1.5215   -0.9014 H        1 ZINC000040899799    0.0900
49     H49    -3.7336   -1.5759    0.8771 H        1 ZINC000040899799    0.0800
50     H50    -5.2324    0.3969    0.9776 H        1 ZINC000040899799    0.0900
51     H51    -5.2800    0.4514   -0.8009 H        1 ZINC000040899799    0.1200
52     H52    -8.2879   -2.1467   -3.2237 H        1 ZINC000040899799    0.4100
53     H53    -7.2002   -0.1695   -4.9220 H        1 ZINC000040899799    0.0700
54     H54    -6.2198   -1.6466   -5.0809 H        1 ZINC000040899799    0.0700
55     H55    -8.2609   -2.9421   -5.6322 H        1 ZINC000040899799    0.0800
56     H56    -9.2413   -1.4650   -5.4733 H        1 ZINC000040899799    0.0800
57     H57    -9.1430    0.2683   -7.4661 H        1 ZINC000040899799    0.1700
58     H58    -8.1381    0.2116   -9.8059 H        1 ZINC000040899799    0.4200
59     H59    -6.3019   -1.4252  -11.2918 H        1 ZINC000040899799    0.1200
60     H60    -4.9095   -3.4292  -11.0295 H        1 ZINC000040899799    0.1300
61     H61    -4.8695   -4.6527   -8.8979 H        1 ZINC000040899799    0.1200
62     H62    -6.2168   -3.8906   -7.0063 H        1 ZINC000040899799    0.1200
63     H63    -8.5701   -3.0551   -1.3205 H        1 ZINC000040899799    0.1600
64     H64    -9.2778   -4.1282    1.3376 H        1 ZINC000040899799    0.1400
65     H65    -9.8046   -4.3487    3.8140 H        1 ZINC000040899799    0.4200
66     H66    -9.7938   -5.0763    6.3880 H        1 ZINC000040899799    0.1300
67     H67    -9.2741   -6.4768    5.4201 H        1 ZINC000040899799    0.1300
68     H68    -7.1115   -5.6670    7.0461 H        1 ZINC000040899799    0.4400
69     H69   -10.3146   -7.0255    7.2921 H        1 ZINC000040899799    0.4400
70     H70   -10.0202   -7.8906    8.7019 H        1 ZINC000040899799    0.4400
71     H71    -6.9032   -2.4795    4.4851 H        1 ZINC000040899799    0.1400
72     H72    -5.6726   -1.1016    2.8748 H        1 ZINC000040899799    0.1300
@<TRIPOS>BOND
1     1     2     ar
2     1     43    1
3     1     44    1
4     2     3     ar
5     2     6     ar
6     3     4     1
7     3     5     1
8     6     7     1
9     6     45    1
10    7     8     1
11    7     46    1
12    7     47    1
13    8     9     1
14    8     48    1
15    8     49    1
16    9     10    1
17    9     50    1
18    9     51    1
19    10    42    1
20    10    11    1
21    11    12    1
22    11    26    2
23    12    13    2
24    12    14    am
25    14    15    1
26    14    52    1
27    15    16    1
28    15    53    1
29    15    54    1
30    16    17    1
31    16    55    1
32    16    56    1
33    17    25    1
34    17    18    2
35    18    19    1
36    18    57    1
37    19    20    1
38    19    58    1
39    20    25    ar
40    20    21    ar
41    21    22    ar
42    21    59    1
43    22    23    ar
44    22    60    1
45    23    24    ar
46    23    61    1
47    24    25    ar
48    24    62    1
49    26    27    1
50    26    63    1
51    27    42    ar
52    27    28    ar
53    28    29    ar
54    28    64    1
55    29    30    1
56    29    40    ar
57    30    31    am
58    30    65    1
59    31    32    2
60    31    33    1
61    33    34    1
62    33    66    1
63    33    67    1
64    34    35    ar
65    34    68    1
66    35    36    ar
67    35    37    ar
68    36    69    1
69    36    70    1
70    37    38    1
71    37    39    1
72    40    41    ar
73    40    71    1
74    41    42    ar
75    41    72    1
@<TRIPOS>SUBSTRUCTURE
1   ZINC000040899799 1     RESIDUE    1   A     ZIN   1
