@<TRIPOS>MOLECULE
ZINC000005765088
32    34    1     0     0
SMALL
USER_CHARGES
@<TRIPOS>ATOM
1      C1     -0.0173    1.4248    0.0099 C.3      1 ZINC000005765088    0.0200
2      O2      0.0021   -0.0041    0.0020 O.3      1 ZINC000005765088   -0.3000
3      C3      0.6251   -0.6177    1.0403 C.ar     1 ZINC000005765088    0.1900
4      C4      1.2067    0.1477    2.0426 C.ar     1 ZINC000005765088   -0.2500
5      C5      1.8058   -0.4707    3.1290 C.ar     1 ZINC000005765088    0.2300
6      O6      2.3783    0.2765    4.1063 O.3      1 ZINC000005765088   -0.4800
7      C7      1.8086   -1.8617    3.2021 C.ar     1 ZINC000005765088   -0.2500
8      C8      2.2493   -2.6004    4.3936 C.2      1 ZINC000005765088    0.5400
9      O9      3.1037   -2.1792    5.1402 O.2      1 ZINC000005765088   -0.4100
10     O10     1.6380   -3.7961    4.6053 O.3      1 ZINC000005765088   -0.2900
11     C11     1.6110   -4.6324    3.5334 C.ar     1 ZINC000005765088    0.1500
12     C12     1.6422   -6.0006    3.7336 C.ar     1 ZINC000005765088   -0.1700
13     C13     1.6453   -6.8585    2.6464 C.ar     1 ZINC000005765088    0.1600
14     O14     1.6620   -8.2018    2.8424 O.3      1 ZINC000005765088   -0.4900
15     C15     1.6382   -6.3420    1.3587 C.ar     1 ZINC000005765088   -0.1700
16     C16     1.5933   -4.9752    1.1472 C.ar     1 ZINC000005765088   -0.0100
17     C17     1.6468   -4.4907   -0.2802 C.3      1 ZINC000005765088   -0.1300
18     C18     1.5332   -4.1047    2.2243 C.ar     1 ZINC000005765088   -0.1300
19     C19     1.3373   -2.6466    2.1131 C.ar     1 ZINC000005765088    0.0700
20     C20     0.6745   -2.0074    1.0843 C.ar     1 ZINC000005765088   -0.1600
21     H21     1.0053    1.8021    0.0021 H        1 ZINC000005765088    0.0600
22     H22    -0.5445    1.7859   -0.8732 H        1 ZINC000005765088    0.1100
23     H23    -0.5275    1.7763    0.9067 H        1 ZINC000005765088    0.0600
24     H24     1.1931    1.2245    1.9766 H        1 ZINC000005765088    0.1500
25     H25     1.7757    0.5129    4.8247 H        1 ZINC000005765088    0.4000
26     H26     1.6633   -6.4017    4.7367 H        1 ZINC000005765088    0.1500
27     H27     0.7835   -8.6011    2.9046 H        1 ZINC000005765088    0.4000
28     H28     1.6680   -7.0082    0.5083 H        1 ZINC000005765088    0.1400
29     H29     0.6342   -4.4159   -0.6767 H        1 ZINC000005765088    0.0800
30     H30     2.1234   -3.5110   -0.3137 H        1 ZINC000005765088    0.0800
31     H31     2.2214   -5.1951   -0.8817 H        1 ZINC000005765088    0.0800
32     H32     0.1423   -2.5643    0.3272 H        1 ZINC000005765088    0.1500
@<TRIPOS>BOND
1     1     2     1
2     1     21    1
3     1     22    1
4     1     23    1
5     2     3     1
6     3     20    ar
7     3     4     ar
8     4     5     ar
9     4     24    1
10    5     6     1
11    5     7     ar
12    6     25    1
13    7     19    ar
14    7     8     1
15    8     9     2
16    8     10    1
17    10    11    1
18    11    18    ar
19    11    12    ar
20    12    13    ar
21    12    26    1
22    13    14    1
23    13    15    ar
24    14    27    1
25    15    16    ar
26    15    28    1
27    16    17    1
28    16    18    ar
29    17    29    1
30    17    30    1
31    17    31    1
32    18    19    1
33    19    20    ar
34    20    32    1
@<TRIPOS>SUBSTRUCTURE
1   ZINC000005765088 1     RESIDUE    1   A     ZIN   1
