@<TRIPOS>MOLECULE
ZINC000000001253
28    29    1     0     0
SMALL
USER_CHARGES
@<TRIPOS>ATOM
1      N1     -0.0165    1.3684    0.0096 N.pl3    1 ZINC000000001253   -0.7900
2      C2      0.0021   -0.0041    0.0020 C.2      1 ZINC000000001253    0.6300
3      N3     -1.1394   -0.6782    0.0038 N.2      1 ZINC000000001253   -0.6400
4      C4     -1.1259   -2.0141   -0.0035 C.2      1 ZINC000000001253    0.6500
5      O5     -2.1732   -2.6383   -0.0023 O.2      1 ZINC000000001253   -0.4800
6      N6      0.0541   -2.6679   -0.0127 N.am     1 ZINC000000001253   -0.5600
7      C7      0.0853   -4.1325   -0.0213 C.3      1 ZINC000000001253    0.2900
8      H8      0.5969   -4.5096    0.8642 H        1 ZINC000000001253    0.1100
9      C9      0.7678   -4.6564   -1.3105 C.3      1 ZINC000000001253   -0.2000
10     C10     0.1578   -6.0726   -1.4479 C.3      1 ZINC000000001253    0.0800
11     H11    -0.0720   -6.2894   -2.4911 H        1 ZINC000000001253    0.0900
12     O12     1.0505   -7.0552   -0.9191 O.3      1 ZINC000000001253   -0.5500
13     C13    -1.1356   -6.0094   -0.6126 C.3      1 ZINC000000001253    0.0800
14     H14    -1.0762   -6.7146    0.2165 H        1 ZINC000000001253    0.1000
15     C15    -2.3409   -6.3431   -1.4938 C.3      1 ZINC000000001253    0.0800
16     O16    -3.5199   -6.3963   -0.6881 O.3      1 ZINC000000001253   -0.5600
17     O17    -1.2527   -4.6690   -0.1026 O.3      1 ZINC000000001253   -0.3100
18     C18     1.2070   -1.9634   -0.0144 C.2      1 ZINC000000001253    0.4500
19     N19     1.1744   -0.6542   -0.0127 N.2      1 ZINC000000001253   -0.6000
20     H20     0.8168    1.8648    0.0043 H        1 ZINC000000001253    0.4200
21     H21    -0.8631    1.8419    0.0162 H        1 ZINC000000001253    0.4200
22     H22     0.5077   -4.0359   -2.1680 H        1 ZINC000000001253    0.1000
23     H23     1.8492   -4.7092   -1.1841 H        1 ZINC000000001253    0.1000
24     H24     1.9033   -7.0967   -1.3730 H        1 ZINC000000001253    0.3900
25     H25    -2.4570   -5.5738   -2.2572 H        1 ZINC000000001253    0.0500
26     H26    -2.1843   -7.3096   -1.9728 H        1 ZINC000000001253    0.0600
27     H27    -4.3249   -6.6038   -1.1821 H        1 ZINC000000001253    0.3800
28     H28     2.1554   -2.4800   -0.0214 H        1 ZINC000000001253    0.2200
@<TRIPOS>BOND
1     1     2     1
2     1     20    1
3     1     21    1
4     2     19    1
5     2     3     2
6     3     4     1
7     4     5     2
8     4     6     am
9     6     7     1
10    6     18    1
11    7     8     1
12    7     17    1
13    7     9     1
14    9     10    1
15    9     22    1
16    9     23    1
17    10    11    1
18    10    12    1
19    10    13    1
20    12    24    1
21    13    14    1
22    13    15    1
23    13    17    1
24    15    16    1
25    15    25    1
26    15    26    1
27    16    27    1
28    18    19    2
29    18    28    1
@<TRIPOS>SUBSTRUCTURE
1   ZINC000000001253 1     RESIDUE    1   A     ZIN   1
