@<TRIPOS>MOLECULE
ZINC000206084185
61    65    1     0     0
SMALL
USER_CHARGES
@<TRIPOS>ATOM
1      C1     -0.0187    1.5258    0.0104 C.3      1 ZINC000206084185   -0.1400
2      C2      0.0021   -0.0041    0.0020 C.3      1 ZINC000206084185    0.0000
3      C3      0.7182   -0.4975   -1.2568 C.3      1 ZINC000206084185   -0.1400
4      C4      0.7309   -0.5033    1.2229 C.2      1 ZINC000206084185   -0.2200
5      C5      0.2080   -1.3187    2.2098 C.2      1 ZINC000206084185    0.3200
6      N6     -0.9950   -1.8858    2.4026 N.2      1 ZINC000206084185   -0.6000
7      C7     -1.2082   -2.6357    3.4665 C.2      1 ZINC000206084185    0.5700
8      O8     -2.4246   -3.2012    3.6480 O.3      1 ZINC000206084185   -0.2600
9      C9     -3.4161   -2.9411    2.6523 C.3      1 ZINC000206084185    0.0800
10     H10    -2.9320   -2.7898    1.6875 H        1 ZINC000206084185    0.1200
11     C11    -4.2044   -1.6842    3.0317 C.3      1 ZINC000206084185   -0.1600
12     C12    -5.3140   -1.4589    2.0006 C.3      1 ZINC000206084185   -0.1400
13     C13    -6.2025   -2.7030    1.9355 C.3      1 ZINC000206084185   -0.0100
14     N14    -5.3959   -3.8647    1.5426 N.4      1 ZINC000206084185   -0.5000
15     H15    -5.9941   -4.6718    1.4486 H        1 ZINC000206084185    0.4400
16     H16    -4.9452   -3.6767    0.6596 H        1 ZINC000206084185    0.4300
17     C17    -4.3743   -4.1307    2.5623 C.3      1 ZINC000206084185   -0.0100
18     N18    -0.2455   -2.8475    4.3678 N.2      1 ZINC000206084185   -0.6000
19     C19     0.9509   -2.3115    4.2204 C.2      1 ZINC000206084185    0.7100
20     N20     1.9293   -2.5380    5.1532 N.pl3    1 ZINC000206084185   -0.6400
21     C21     1.6485   -3.3783    6.3200 C.3      1 ZINC000206084185    0.1700
22     C22     2.8805   -3.4670    7.1833 C.ar     1 ZINC000206084185   -0.1300
23     C23     3.6982   -4.5773    7.1088 C.ar     1 ZINC000206084185   -0.0700
24     C24     4.8291   -4.6595    7.9008 C.ar     1 ZINC000206084185   -0.1300
25     C25     5.1447   -3.6307    8.7689 C.ar     1 ZINC000206084185   -0.0700
26     C26     4.3308   -2.5173    8.8476 C.ar     1 ZINC000206084185   -0.1400
27     C27     3.1977   -2.4298    8.0504 C.ar     1 ZINC000206084185    0.1800
28     N28     2.3698   -1.3012    8.1280 N.pl3    1 ZINC000206084185   -0.3300
29     C29     2.5601   -0.2282    8.9286 C.2      1 ZINC000206084185    0.0600
30     C30     1.5446    0.6378    8.7046 C.2      1 ZINC000206084185   -0.2500
31     C31     0.7056    0.0765    7.7356 C.2      1 ZINC000206084185    0.0600
32     N32     1.2022   -1.0827    7.3855 N.2      1 ZINC000206084185   -0.2900
33     N33     1.2072   -1.5280    3.1284 N.pl3    1 ZINC000206084185   -0.3900
34     N34     2.3378   -0.8333    2.6898 N.2      1 ZINC000206084185   -0.3000
35     C35     2.0534   -0.2323    1.5583 C.2      1 ZINC000206084185    0.1200
36     H36     1.0039    1.9031    0.0027 H        1 ZINC000206084185    0.0600
37     H37    -0.5459    1.8868   -0.8726 H        1 ZINC000206084185    0.0600
38     H38    -0.5289    1.8773    0.9072 H        1 ZINC000206084185    0.0500
39     H39    -1.0205   -0.3814    0.0098 H        1 ZINC000206084185    0.0800
40     H40     1.7408   -0.1202   -1.2645 H        1 ZINC000206084185    0.0600
41     H41     0.7330   -1.5874   -1.2628 H        1 ZINC000206084185    0.0500
42     H42     0.1910   -0.1364   -2.1398 H        1 ZINC000206084185    0.0600
43     H43    -4.6459   -1.8152    4.0196 H        1 ZINC000206084185    0.0900
44     H44    -3.5356   -0.8235    3.0413 H        1 ZINC000206084185    0.1000
45     H45    -5.9144   -0.5978    2.2943 H        1 ZINC000206084185    0.1200
46     H46    -4.8700   -1.2771    1.0219 H        1 ZINC000206084185    0.0900
47     H47    -6.6462   -2.8837    2.9146 H        1 ZINC000206084185    0.1300
48     H48    -6.9938   -2.5459    1.2025 H        1 ZINC000206084185    0.1400
49     H49    -3.8166   -5.0274    2.2920 H        1 ZINC000206084185    0.1400
50     H50    -4.8562   -4.2812    3.5283 H        1 ZINC000206084185    0.1400
51     H51     2.8076   -2.1419    5.0409 H        1 ZINC000206084185    0.4300
52     H52     0.8326   -2.9406    6.8951 H        1 ZINC000206084185    0.1200
53     H53     1.3644   -4.3771    5.9885 H        1 ZINC000206084185    0.0800
54     H54     3.4543   -5.3825    6.4316 H        1 ZINC000206084185    0.1400
55     H55     5.4667   -5.5291    7.8412 H        1 ZINC000206084185    0.1400
56     H56     6.0282   -3.6979    9.3863 H        1 ZINC000206084185    0.1400
57     H57     4.5778   -1.7140    9.5259 H        1 ZINC000206084185    0.1400
58     H58     3.3758   -0.0876    9.6223 H        1 ZINC000206084185    0.1800
59     H59     1.4062    1.5934    9.1884 H        1 ZINC000206084185    0.1600
60     H60    -0.1943    0.5248    7.3412 H        1 ZINC000206084185    0.1800
61     H61     2.7337    0.3794    0.9843 H        1 ZINC000206084185    0.2000
@<TRIPOS>BOND
1     1     2     1
2     1     36    1
3     1     37    1
4     1     38    1
5     2     3     1
6     2     4     1
7     2     39    1
8     3     40    1
9     3     41    1
10    3     42    1
11    4     35    1
12    4     5     2
13    5     33    1
14    5     6     1
15    6     7     2
16    7     8     1
17    7     18    1
18    8     9     1
19    9     10    1
20    9     17    1
21    9     11    1
22    11    12    1
23    11    43    1
24    11    44    1
25    12    13    1
26    12    45    1
27    12    46    1
28    13    14    1
29    13    47    1
30    13    48    1
31    14    15    1
32    14    16    1
33    14    17    1
34    17    49    1
35    17    50    1
36    18    19    2
37    19    20    1
38    19    33    1
39    20    21    1
40    20    51    1
41    21    22    1
42    21    52    1
43    21    53    1
44    22    27    ar
45    22    23    ar
46    23    24    ar
47    23    54    1
48    24    25    ar
49    24    55    1
50    25    26    ar
51    25    56    1
52    26    27    ar
53    26    57    1
54    27    28    1
55    28    32    1
56    28    29    1
57    29    30    2
58    29    58    1
59    30    31    1
60    30    59    1
61    31    32    2
62    31    60    1
63    33    34    1
64    34    35    2
65    35    61    1
@<TRIPOS>SUBSTRUCTURE
1   ZINC000206084185 1     RESIDUE    1   A     ZIN   1
