@<TRIPOS>MOLECULE
ZINC000019361903
71    73    1     0     0
SMALL
USER_CHARGES
@<TRIPOS>ATOM
1      C1     14.8109    1.3880   11.4187 C.ar     1 ZINC000019361903   -0.1300
2      C2     15.3112    0.5280   10.4534 C.ar     1 ZINC000019361903   -0.0700
3      C3     14.6748    0.4755    9.2225 C.ar     1 ZINC000019361903   -0.1400
4      C4     13.5710    1.2765    9.0005 C.ar     1 ZINC000019361903    0.0400
5      C5     12.8712    1.2273    7.6667 C.3      1 ZINC000019361903    0.0600
6      N6     11.7422    0.2903    7.7403 N.4      1 ZINC000019361903   -0.5000
7      H7     12.0835   -0.6297    7.9752 H        1 ZINC000019361903    0.4200
8      H8     11.0940    0.5997    8.4489 H        1 ZINC000019361903    0.4300
9      C9     11.0601    0.2424    6.4401 C.3      1 ZINC000019361903    0.0400
10     C10     9.9019   -0.7189    6.5156 C.ar     1 ZINC000019361903   -0.1500
11     C11    10.0909   -2.0540    6.2115 C.ar     1 ZINC000019361903   -0.0800
12     C12     9.0285   -2.9358    6.2808 C.ar     1 ZINC000019361903   -0.1400
13     C13     7.7773   -2.4824    6.6546 C.ar     1 ZINC000019361903   -0.0800
14     C14     6.6190   -3.4436    6.7296 C.3      1 ZINC000019361903    0.0500
15     N15     5.6652   -2.9825    7.7473 N.3      1 ZINC000019361903   -0.5200
16     C16     4.3909   -3.7055    7.6405 C.3      1 ZINC000019361903    0.0500
17     C17     4.3256   -4.4275    6.2932 C.3      1 ZINC000019361903   -0.2000
18     C18     3.8817   -5.8754    6.5115 C.3      1 ZINC000019361903   -0.0200
19     N19     4.7910   -6.7797    5.7950 N.4      1 ZINC000019361903   -0.5100
20     H20     4.3343   -7.1278    4.9654 H        1 ZINC000019361903    0.4400
21     H21     5.6268   -6.2785    5.5336 H        1 ZINC000019361903    0.4200
22     C22     5.1482   -7.9067    6.6668 C.3      1 ZINC000019361903   -0.0300
23     C23     6.6423   -8.2057    6.5274 C.3      1 ZINC000019361903    0.0300
24     N24     7.2369   -8.3625    7.8615 N.3      1 ZINC000019361903   -0.6800
25     C25     8.4960   -7.6134    7.9680 C.3      1 ZINC000019361903    0.0500
26     C26     8.5178   -6.8374    9.2864 C.3      1 ZINC000019361903   -0.1700
27     C27     8.9557   -5.3954    9.0222 C.3      1 ZINC000019361903   -0.0200
28     N28     8.1299   -4.4790    9.8199 N.4      1 ZINC000019361903   -0.5100
29     H29     7.3009   -4.9606   10.1343 H        1 ZINC000019361903    0.4200
30     H30     8.6572   -4.1603   10.6190 H        1 ZINC000019361903    0.4400
31     C31     7.7435   -3.3255    8.9965 C.3      1 ZINC000019361903   -0.0800
32     C32     6.2319   -3.1109    9.0965 C.3      1 ZINC000019361903    0.0300
33     C33     7.5886   -1.1475    6.9600 C.ar     1 ZINC000019361903   -0.0900
34     C34     8.6518   -0.2665    6.8945 C.ar     1 ZINC000019361903   -0.0800
35     N35    13.1224    2.0832    9.9424 N.ar     1 ZINC000019361903   -0.4700
36     C36    13.7022    2.1592   11.1242 C.ar     1 ZINC000019361903    0.1100
37     H37    15.2788    1.4514   12.3900 H        1 ZINC000019361903    0.1500
38     H38    16.1763   -0.0863   10.6551 H        1 ZINC000019361903    0.1500
39     H39    15.0376   -0.1828    8.4469 H        1 ZINC000019361903    0.1400
40     H40    12.5025    2.2212    7.4129 H        1 ZINC000019361903    0.1500
41     H41    13.5714    0.8931    6.9011 H        1 ZINC000019361903    0.1500
42     H42    10.6915    1.2362    6.1864 H        1 ZINC000019361903    0.1500
43     H43    11.7603   -0.0919    5.6746 H        1 ZINC000019361903    0.1500
44     H44    11.0685   -2.4082    5.9195 H        1 ZINC000019361903    0.1400
45     H45     9.1760   -3.9788    6.0425 H        1 ZINC000019361903    0.1300
46     H46     6.1221   -3.4901    5.7606 H        1 ZINC000019361903    0.1300
47     H47     6.9858   -4.4343    6.9978 H        1 ZINC000019361903    0.0400
48     H48     4.3182   -4.4346    8.4474 H        1 ZINC000019361903    0.0700
49     H49     3.5647   -2.9983    7.7142 H        1 ZINC000019361903    0.1100
50     H50     3.6103   -3.9221    5.6444 H        1 ZINC000019361903    0.1200
51     H51     5.3106   -4.4160    5.8267 H        1 ZINC000019361903    0.1100
52     H52     3.9049   -6.1058    7.5767 H        1 ZINC000019361903    0.1300
53     H53     2.8676   -6.0054    6.1337 H        1 ZINC000019361903    0.1500
54     H54     4.9241   -7.6503    7.7023 H        1 ZINC000019361903    0.1300
55     H55     4.5731   -8.7863    6.3776 H        1 ZINC000019361903    0.1500
56     H56     6.7771   -9.1260    5.9590 H        1 ZINC000019361903    0.1200
57     H57     7.1306   -7.3821    6.0065 H        1 ZINC000019361903    0.0700
58     H58     6.5878   -8.0831    8.5817 H        1 ZINC000019361903    0.3500
59     H59     9.3355   -8.3082    7.9414 H        1 ZINC000019361903    0.1100
60     H60     8.5753   -6.9157    7.1343 H        1 ZINC000019361903    0.0600
61     H61     7.5203   -6.8396    9.7258 H        1 ZINC000019361903    0.0900
62     H62     9.2190   -7.3097    9.9745 H        1 ZINC000019361903    0.1200
63     H63    10.0028   -5.2768    9.3008 H        1 ZINC000019361903    0.1400
64     H64     8.8332   -5.1666    7.9636 H        1 ZINC000019361903    0.1200
65     H65     8.2612   -2.4349    9.3529 H        1 ZINC000019361903    0.1400
66     H66     8.0159   -3.5129    7.9579 H        1 ZINC000019361903    0.1700
67     H67     6.0307   -2.2018    9.6632 H        1 ZINC000019361903    0.1200
68     H68     5.7768   -3.9625    9.6022 H        1 ZINC000019361903    0.0700
69     H69     6.6111   -0.7934    7.2525 H        1 ZINC000019361903    0.1600
70     H70     8.5045    0.7764    7.1331 H        1 ZINC000019361903    0.1500
71     H71    13.3062    2.8317   11.8708 H        1 ZINC000019361903    0.1700
@<TRIPOS>BOND
1     1     36    ar
2     1     2     ar
3     1     37    1
4     2     3     ar
5     2     38    1
6     3     4     ar
7     3     39    1
8     4     5     1
9     4     35    ar
10    5     6     1
11    5     40    1
12    5     41    1
13    6     7     1
14    6     8     1
15    6     9     1
16    9     10    1
17    9     42    1
18    9     43    1
19    10    34    ar
20    10    11    ar
21    11    12    ar
22    11    44    1
23    12    13    ar
24    12    45    1
25    13    14    1
26    13    33    ar
27    14    15    1
28    14    46    1
29    14    47    1
30    15    32    1
31    15    16    1
32    16    17    1
33    16    48    1
34    16    49    1
35    17    18    1
36    17    50    1
37    17    51    1
38    18    19    1
39    18    52    1
40    18    53    1
41    19    20    1
42    19    21    1
43    19    22    1
44    22    23    1
45    22    54    1
46    22    55    1
47    23    24    1
48    23    56    1
49    23    57    1
50    24    25    1
51    24    58    1
52    25    26    1
53    25    59    1
54    25    60    1
55    26    27    1
56    26    61    1
57    26    62    1
58    27    28    1
59    27    63    1
60    27    64    1
61    28    29    1
62    28    30    1
63    28    31    1
64    31    32    1
65    31    65    1
66    31    66    1
67    32    67    1
68    32    68    1
69    33    34    ar
70    33    69    1
71    34    70    1
72    35    36    ar
73    36    71    1
@<TRIPOS>SUBSTRUCTURE
1   ZINC000019361903 1     RESIDUE    1   A     ZIN   1
