@<TRIPOS>MOLECULE
ZINC000004150988
39    41    1     0     0
SMALL
USER_CHARGES
@<TRIPOS>ATOM
1      C1      5.4169    8.1250   -0.9491 C.2      1 ZINC000004150988   -0.1600
2      C2      5.0374    7.1006   -1.6720 C.2      1 ZINC000004150988   -0.1600
3      C3      5.9902    5.9600   -1.9214 C.3      1 ZINC000004150988    0.1000
4      O4      5.2969    4.6990   -1.7280 O.3      1 ZINC000004150988   -0.3500
5      C5      6.0125    3.5728   -1.9137 C.2      1 ZINC000004150988    0.5000
6      O6      7.1836    3.6424   -2.2287 O.2      1 ZINC000004150988   -0.4800
7      C7      5.3732    2.2538   -1.7345 C.ar     1 ZINC000004150988   -0.1200
8      C8      4.0287    2.1719   -1.3775 C.ar     1 ZINC000004150988   -0.0200
9      C9      3.4346    0.9222   -1.2048 C.ar     1 ZINC000004150988   -0.0400
10     C10     2.0125    0.8261   -0.8218 C.2      1 ZINC000004150988    0.0700
11     C11     1.3171   -0.3340   -0.6283 C.2      1 ZINC000004150988   -0.2000
12     C12     0.0116    0.0215   -0.2797 C.2      1 ZINC000004150988   -0.1200
13     C13    -0.0371    1.4042   -0.2746 C.2      1 ZINC000004150988   -0.0300
14     C14    -1.1699    2.1933    0.0198 C.2      1 ZINC000004150988    0.0500
15     C15    -1.0480    3.5481    0.1295 C.2      1 ZINC000004150988   -0.0300
16     N16    -2.0850    4.4807    0.2457 N.am     1 ZINC000004150988   -0.5900
17     C17    -1.5247    5.7018    0.3312 C.2      1 ZINC000004150988    0.5300
18     S18    -2.3892    7.1709    0.4907 S.2      1 ZINC000004150988   -0.5200
19     N19    -0.1869    5.5971    0.2668 N.am     1 ZINC000004150988   -0.6300
20     C20     0.1584    4.3006    0.1430 C.2      1 ZINC000004150988    0.5400
21     O21     1.2897    3.8572    0.0589 O.2      1 ZINC000004150988   -0.4300
22     O22     1.1871    1.8662   -0.6060 O.3      1 ZINC000004150988   -0.1100
23     C23     4.1874   -0.2398   -1.4008 C.ar     1 ZINC000004150988   -0.0400
24     C24     5.5170   -0.1523   -1.7594 C.ar     1 ZINC000004150988   -0.1200
25     C25     6.1146    1.0831   -1.9269 C.ar     1 ZINC000004150988    0.0300
26     Cl26    7.7882    1.1819   -2.3776 Cl       1 ZINC000004150988   -0.0200
27     H27     6.4127    8.1522   -0.5319 H        1 ZINC000004150988    0.1000
28     H28     4.7341    8.9424   -0.7704 H        1 ZINC000004150988    0.1100
29     H29     4.0416    7.0734   -2.0892 H        1 ZINC000004150988    0.1200
30     H30     6.8259    6.0257   -1.2247 H        1 ZINC000004150988    0.0800
31     H31     6.3643    6.0159   -2.9437 H        1 ZINC000004150988    0.0800
32     H32     3.4503    3.0722   -1.2316 H        1 ZINC000004150988    0.1600
33     H33     1.7038   -1.3376   -0.7268 H        1 ZINC000004150988    0.1600
34     H34    -0.8022   -0.6527   -0.0573 H        1 ZINC000004150988    0.1700
35     H35    -2.1332    1.7249    0.1581 H        1 ZINC000004150988    0.1800
36     H36    -3.0344    4.2830    0.2638 H        1 ZINC000004150988    0.4500
37     H37     0.4350    6.3406    0.3040 H        1 ZINC000004150988    0.4500
38     H38     3.7270   -1.2081   -1.2716 H        1 ZINC000004150988    0.1500
39     H39     6.0936   -1.0531   -1.9094 H        1 ZINC000004150988    0.1500
@<TRIPOS>BOND
1     1     2     2
2     1     27    1
3     1     28    1
4     2     3     1
5     2     29    1
6     3     4     1
7     3     30    1
8     3     31    1
9     4     5     1
10    5     6     2
11    5     7     1
12    7     25    ar
13    7     8     ar
14    8     9     ar
15    8     32    1
16    9     10    1
17    9     23    ar
18    10    22    1
19    10    11    2
20    11    12    1
21    11    33    1
22    12    13    2
23    12    34    1
24    13    14    1
25    13    22    1
26    14    15    2
27    14    35    1
28    15    20    1
29    15    16    1
30    16    17    am
31    16    36    1
32    17    18    2
33    17    19    am
34    19    20    am
35    19    37    1
36    20    21    2
37    23    24    ar
38    23    38    1
39    24    25    ar
40    24    39    1
41    25    26    1
@<TRIPOS>SUBSTRUCTURE
1   ZINC000004150988 1     RESIDUE    1   A     ZIN   1
