@<TRIPOS>MOLECULE
ZINC000008581906
35    37    1     0     0
SMALL
USER_CHARGES
@<TRIPOS>ATOM
1      C1      0.4047    0.7165    0.7744 C.3      1 ZINC000008581906   -0.1600
2      C2      0.2054   -0.7201    0.2871 C.3      1 ZINC000008581906    0.1600
3      C3      0.8799   -1.6874    1.2619 C.3      1 ZINC000008581906   -0.1600
4      N4     -1.2273   -1.0176    0.2168 N.pl3    1 ZINC000008581906   -0.3700
5      N5     -2.1167   -0.9684    1.2954 N.2      1 ZINC000008581906   -0.2200
6      C6     -3.3235   -1.2904    0.8936 C.2      1 ZINC000008581906    0.1600
7      C7     -4.5415   -1.3548    1.7364 C.ar     1 ZINC000008581906    0.0100
8      C8     -5.4127   -2.4373    1.6242 C.ar     1 ZINC000008581906   -0.1200
9      C9     -6.5460   -2.4953    2.4103 C.ar     1 ZINC000008581906   -0.0700
10     C10    -6.8205   -1.4817    3.3101 C.ar     1 ZINC000008581906   -0.1100
11     Br11   -8.3751   -1.5689    4.3831 Br       1 ZINC000008581906   -0.0300
12     C12    -5.9571   -0.3998    3.4282 C.ar     1 ZINC000008581906    0.1400
13     O13    -6.2304    0.5941    4.3142 O.3      1 ZINC000008581906   -0.4800
14     C14    -4.8158   -0.3362    2.6470 C.ar     1 ZINC000008581906   -0.1100
15     C15    -3.2455   -1.5737   -0.5392 C.ar     1 ZINC000008581906   -0.3200
16     C16    -4.1660   -1.9612   -1.5267 C.ar     1 ZINC000008581906    0.5200
17     N17    -5.4974   -2.1586   -1.2151 N.pl3    1 ZINC000008581906   -0.8300
18     N18    -3.7241   -2.1328   -2.7688 N.ar     1 ZINC000008581906   -0.6000
19     C19    -2.4522   -1.9450   -3.0726 C.ar     1 ZINC000008581906    0.3900
20     N20    -1.5552   -1.5828   -2.1819 N.ar     1 ZINC000008581906   -0.5700
21     C21    -1.9019   -1.3798   -0.9111 C.ar     1 ZINC000008581906    0.3800
22     H22     1.4706    0.9379    0.8267 H        1 ZINC000008581906    0.0800
23     H23    -0.0759    1.4056    0.0799 H        1 ZINC000008581906    0.0600
24     H24    -0.0389    0.8294    1.7636 H        1 ZINC000008581906    0.0700
25     H25     0.6490   -0.8330   -0.7021 H        1 ZINC000008581906    0.1100
26     H26     0.7380   -2.7109    0.9148 H        1 ZINC000008581906    0.0600
27     H27     1.9459   -1.4661    1.3143 H        1 ZINC000008581906    0.0800
28     H28     0.4364   -1.5745    2.2512 H        1 ZINC000008581906    0.0700
29     H29    -5.2012   -3.2303    0.9221 H        1 ZINC000008581906    0.1400
30     H30    -7.2202   -3.3344    2.3221 H        1 ZINC000008581906    0.1500
31     H31    -5.8551    0.4511    5.1938 H        1 ZINC000008581906    0.4000
32     H32    -4.1437    0.5043    2.7378 H        1 ZINC000008581906    0.1500
33     H33    -5.8563   -1.8166   -0.3814 H        1 ZINC000008581906    0.4100
34     H34    -6.0733   -2.6392   -1.8302 H        1 ZINC000008581906    0.4100
35     H35    -2.1361   -2.0955   -4.0942 H        1 ZINC000008581906    0.2100
@<TRIPOS>BOND
1     1     2     1
2     1     22    1
3     1     23    1
4     1     24    1
5     2     3     1
6     2     4     1
7     2     25    1
8     3     26    1
9     3     27    1
10    3     28    1
11    4     21    1
12    4     5     1
13    5     6     2
14    6     7     1
15    6     15    1
16    7     14    ar
17    7     8     ar
18    8     9     ar
19    8     29    1
20    9     10    ar
21    9     30    1
22    10    11    1
23    10    12    ar
24    12    13    1
25    12    14    ar
26    13    31    1
27    14    32    1
28    15    21    ar
29    15    16    ar
30    16    17    1
31    16    18    ar
32    17    33    1
33    17    34    1
34    18    19    ar
35    19    20    ar
36    19    35    1
37    20    21    ar
@<TRIPOS>SUBSTRUCTURE
1   ZINC000008581906 1     RESIDUE    1   A     ZIN   1
