@<TRIPOS>MOLECULE
ZINC000018847037
32    34    1     0     0
SMALL
USER_CHARGES
@<TRIPOS>ATOM
1      C1     -0.0173    1.4248    0.0099 C.3      1 ZINC000018847037    0.0300
2      O2      0.0021   -0.0041    0.0020 O.3      1 ZINC000018847037   -0.3200
3      C3      0.6259   -0.6184    1.0416 C.ar     1 ZINC000018847037    0.1200
4      C4      1.2017    0.1413    2.0505 C.ar     1 ZINC000018847037   -0.2100
5      C5      1.8355   -0.4792    3.1068 C.ar     1 ZINC000018847037   -0.0700
6      C6      1.8969   -1.8706    3.1607 C.ar     1 ZINC000018847037   -0.0400
7      C7      2.5773   -2.5411    4.2955 C.2      1 ZINC000018847037   -0.2600
8      C8      2.0902   -2.4421    5.5591 C.2      1 ZINC000018847037    0.1200
9      O9      2.6576   -3.0404    6.6069 O.3      1 ZINC000018847037   -0.2200
10     C10     3.9154   -3.5174    6.5438 C.ar     1 ZINC000018847037    0.1800
11     C11     4.6068   -3.8329    7.7052 C.ar     1 ZINC000018847037   -0.2900
12     C12     5.8974   -4.3323    7.6328 C.ar     1 ZINC000018847037    0.3200
13     O13     6.5646   -4.6350    8.7756 O.3      1 ZINC000018847037   -0.6900
14     C14     6.5170   -4.5275    6.4032 C.ar     1 ZINC000018847037   -0.2900
15     C15     5.8475   -4.2175    5.2336 C.ar     1 ZINC000018847037    0.2200
16     O16     6.4460   -4.4099    4.0310 O.3      1 ZINC000018847037   -0.4900
17     C17     4.5472   -3.7036    5.3006 C.ar     1 ZINC000018847037   -0.3700
18     C18     3.8002   -3.3404    4.0828 C.2      1 ZINC000018847037    0.4400
19     O19     4.1715   -3.6757    2.9709 O.2      1 ZINC000018847037   -0.4900
20     C20     1.3173   -2.6308    2.1463 C.ar     1 ZINC000018847037   -0.0500
21     C21     0.6807   -2.0044    1.0951 C.ar     1 ZINC000018847037   -0.1500
22     H22     1.0053    1.8021    0.0021 H        1 ZINC000018847037    0.0500
23     H23    -0.5445    1.7859   -0.8732 H        1 ZINC000018847037    0.1000
24     H24    -0.5275    1.7763    0.9067 H        1 ZINC000018847037    0.0500
25     H25     1.1538    1.2194    2.0081 H        1 ZINC000018847037    0.1300
26     H26     2.2840    0.1125    3.8911 H        1 ZINC000018847037    0.1300
27     H27     1.2016   -1.8506    5.7232 H        1 ZINC000018847037    0.1800
28     H28     4.1381   -3.6885    8.6674 H        1 ZINC000018847037    0.1200
29     H29     7.5219   -4.9211    6.3618 H        1 ZINC000018847037    0.1200
30     H30     6.2936   -5.2862    3.6515 H        1 ZINC000018847037    0.3900
31     H31     1.3635   -3.7091    2.1850 H        1 ZINC000018847037    0.1300
32     H32     0.2314   -2.5927    0.3087 H        1 ZINC000018847037    0.1300
@<TRIPOS>BOND
1     1     2     1
2     1     22    1
3     1     23    1
4     1     24    1
5     2     3     1
6     3     21    ar
7     3     4     ar
8     4     5     ar
9     4     25    1
10    5     6     ar
11    5     26    1
12    6     7     1
13    6     20    ar
14    7     18    1
15    7     8     2
16    8     9     1
17    8     27    1
18    9     10    1
19    10    17    ar
20    10    11    ar
21    11    12    ar
22    11    28    1
23    12    13    1
24    12    14    ar
25    14    15    ar
26    14    29    1
27    15    16    1
28    15    17    ar
29    16    30    1
30    17    18    1
31    18    19    2
32    20    21    ar
33    20    31    1
34    21    32    1
@<TRIPOS>SUBSTRUCTURE
1   ZINC000018847037 1     RESIDUE    1   A     ZIN   1
