@<TRIPOS>MOLECULE
ZINC000169341683
72    76    1     0     0
SMALL
USER_CHARGES
@<TRIPOS>ATOM
1      C1     -0.9071    0.7383   -1.6488 C.3      1 ZINC000169341683   -0.1600
2      C2     -0.9320   -0.7686   -1.3846 C.3      1 ZINC000169341683    0.0500
3      O3     -2.2619   -1.1719   -1.0520 O.3      1 ZINC000169341683   -0.3000
4      C4     -2.4586   -2.4901   -0.7863 C.ar     1 ZINC000169341683    0.2100
5      C5     -1.3922   -3.3755   -0.8390 C.ar     1 ZINC000169341683   -0.2600
6      C6     -1.5938   -4.7174   -0.5682 C.ar     1 ZINC000169341683    0.2000
7      F7     -0.5552   -5.5800   -0.6190 F        1 ZINC000169341683   -0.1300
8      C8     -2.8594   -5.1765   -0.2447 C.ar     1 ZINC000169341683   -0.2400
9      C9     -3.0774   -6.6382    0.0499 C.3      1 ZINC000169341683    0.1800
10     N10    -2.8902   -6.8808    1.4825 N.pl3    1 ZINC000169341683   -0.3300
11     N11    -1.6825   -7.2111    2.1083 N.2      1 ZINC000169341683   -0.2400
12     C12    -1.9137   -7.3495    3.3962 C.2      1 ZINC000169341683    0.1200
13     C13    -0.9093   -7.6973    4.4302 C.ar     1 ZINC000169341683    0.4400
14     N14    -1.2952   -7.8065    5.6932 N.ar     1 ZINC000169341683   -0.4700
15     C15    -0.4288   -8.1154    6.6462 C.ar     1 ZINC000169341683    0.1200
16     C16     0.8994   -8.3262    6.3110 C.ar     1 ZINC000169341683   -0.0200
17     O17     1.8158   -8.6454    7.2639 O.3      1 ZINC000169341683   -0.3200
18     C18     1.3439   -8.7502    8.6087 C.3      1 ZINC000169341683    0.0200
19     C19     2.5091   -9.1136    9.5312 C.3      1 ZINC000169341683    0.0000
20     N20     3.4731   -8.0056    9.5622 N.4      1 ZINC000169341683   -0.3900
21     H21     3.7413   -7.7667    8.6192 H        1 ZINC000169341683    0.4300
22     C22     2.8569   -6.8382   10.2067 C.3      1 ZINC000169341683   -0.0600
23     C23     4.6630   -8.4128   10.3214 C.3      1 ZINC000169341683   -0.0500
24     C24     1.2754   -8.2032    4.9665 C.ar     1 ZINC000169341683    0.4000
25     N25     2.5947   -8.4052    4.5820 N.pl3    1 ZINC000169341683   -0.6300
26     C26     2.9805   -8.1672    3.2647 C.ar     1 ZINC000169341683    0.2900
27     C27     3.9962   -8.9156    2.6703 C.ar     1 ZINC000169341683   -0.1700
28     C28     4.3484   -8.6487    1.3640 C.ar     1 ZINC000169341683    0.1600
29     N29     3.7382   -7.6997    0.6790 N.ar     1 ZINC000169341683   -0.4700
30     H30     4.0071   -7.5338   -0.2381 H        1 ZINC000169341683    0.4500
31     C31     2.7724   -6.9703    1.2056 C.ar     1 ZINC000169341683    0.1600
32     C32     2.3572   -7.1782    2.5042 C.ar     1 ZINC000169341683   -0.1400
33     N33     0.3505   -7.8961    4.0657 N.ar     1 ZINC000169341683   -0.5100
34     C34    -3.2867   -7.1081    3.6200 C.2      1 ZINC000169341683   -0.2000
35     C35    -3.8541   -6.8187    2.4311 C.2      1 ZINC000169341683    0.0700
36     C36    -5.3332   -6.5490    2.6067 C.3      1 ZINC000169341683   -0.0500
37     C37    -5.6835   -7.1317    3.9935 C.3      1 ZINC000169341683   -0.1200
38     C38    -4.3226   -7.0600    4.7224 C.3      1 ZINC000169341683   -0.0400
39     C39    -3.9247   -4.2937   -0.1913 C.ar     1 ZINC000169341683    0.2000
40     F40    -5.1587   -4.7431    0.1254 F        1 ZINC000169341683   -0.1100
41     C41    -3.7248   -2.9503   -0.4565 C.ar     1 ZINC000169341683   -0.2000
42     H42     0.1073    1.0459   -1.9025 H        1 ZINC000169341683    0.0900
43     H43    -1.5758    0.9730   -2.4770 H        1 ZINC000169341683    0.0700
44     H44    -1.2351    1.2693   -0.7552 H        1 ZINC000169341683    0.0700
45     H45    -0.6040   -1.2996   -2.2782 H        1 ZINC000169341683    0.0700
46     H46    -0.2633   -1.0033   -0.5564 H        1 ZINC000169341683    0.0700
47     H47    -0.4049   -3.0177   -1.0916 H        1 ZINC000169341683    0.1500
48     H48    -4.0907   -6.9194   -0.2368 H        1 ZINC000169341683    0.1200
49     H49    -2.3612   -7.2338   -0.5161 H        1 ZINC000169341683    0.1100
50     H50    -0.7535   -8.2016    7.6726 H        1 ZINC000169341683    0.1900
51     H51     0.9181   -7.7962    8.9197 H        1 ZINC000169341683    0.1000
52     H52     0.5796   -9.5252    8.6661 H        1 ZINC000169341683    0.1200
53     H53     2.1324   -9.2956   10.5378 H        1 ZINC000169341683    0.1600
54     H54     3.0005  -10.0125    9.1591 H        1 ZINC000169341683    0.1500
55     H55     2.5672   -7.0963   11.2253 H        1 ZINC000169341683    0.1300
56     H56     3.5722   -6.0160   10.2296 H        1 ZINC000169341683    0.1300
57     H57     1.9740   -6.5360    9.6433 H        1 ZINC000169341683    0.1200
58     H58     5.1650   -9.2280    9.8003 H        1 ZINC000169341683    0.1300
59     H59     5.3434   -7.5661   10.4122 H        1 ZINC000169341683    0.1300
60     H60     4.3634   -8.7465   11.3149 H        1 ZINC000169341683    0.1300
61     H61     3.2474   -8.7119    5.2306 H        1 ZINC000169341683    0.4400
62     H62     4.5000   -9.6931    3.2254 H        1 ZINC000169341683    0.1800
63     H63     5.1338   -9.2233    0.8956 H        1 ZINC000169341683    0.2100
64     H64     2.2988   -6.2033    0.6108 H        1 ZINC000169341683    0.2100
65     H65     1.5663   -6.5778    2.9290 H        1 ZINC000169341683    0.1900
66     H66    -5.5278   -5.4767    2.5862 H        1 ZINC000169341683    0.0900
67     H67    -5.9054   -7.0537    1.8283 H        1 ZINC000169341683    0.0900
68     H68    -6.4269   -6.5149    4.4985 H        1 ZINC000169341683    0.0900
69     H69    -6.0281   -8.1621    3.9072 H        1 ZINC000169341683    0.0800
70     H70    -4.2037   -7.9152    5.3877 H        1 ZINC000169341683    0.0800
71     H71    -4.2416   -6.1288    5.2830 H        1 ZINC000169341683    0.0800
72     H72    -4.5559   -2.2619   -0.4144 H        1 ZINC000169341683    0.1600
@<TRIPOS>BOND
1     1     2     1
2     1     42    1
3     1     43    1
4     1     44    1
5     2     3     1
6     2     45    1
7     2     46    1
8     3     4     1
9     4     41    ar
10    4     5     ar
11    5     6     ar
12    5     47    1
13    6     7     1
14    6     8     ar
15    8     9     1
16    8     39    ar
17    9     10    1
18    9     48    1
19    9     49    1
20    10    35    1
21    10    11    1
22    11    12    2
23    12    13    1
24    12    34    1
25    13    33    ar
26    13    14    ar
27    14    15    ar
28    15    16    ar
29    15    50    1
30    16    17    1
31    16    24    ar
32    17    18    1
33    18    19    1
34    18    51    1
35    18    52    1
36    19    20    1
37    19    53    1
38    19    54    1
39    20    21    1
40    20    22    1
41    20    23    1
42    22    55    1
43    22    56    1
44    22    57    1
45    23    58    1
46    23    59    1
47    23    60    1
48    24    25    1
49    24    33    ar
50    25    26    1
51    25    61    1
52    26    32    ar
53    26    27    ar
54    27    28    ar
55    27    62    1
56    28    29    ar
57    28    63    1
58    29    30    1
59    29    31    ar
60    31    32    ar
61    31    64    1
62    32    65    1
63    34    38    1
64    34    35    2
65    35    36    1
66    36    37    1
67    36    66    1
68    36    67    1
69    37    38    1
70    37    68    1
71    37    69    1
72    38    70    1
73    38    71    1
74    39    40    1
75    39    41    ar
76    41    72    1
@<TRIPOS>SUBSTRUCTURE
1   ZINC000169341683 1     RESIDUE    1   A     ZIN   1
