@<TRIPOS>MOLECULE
ZINC000028821318
44    48    1     0     0
SMALL
USER_CHARGES
@<TRIPOS>ATOM
1      O1      0.0804   -0.0077    0.5951 O.2      1 ZINC000028821318   -0.4600
2      C2      0.0569    1.2123    0.5763 C.2      1 ZINC000028821318    0.5500
3      N3     -1.0320    1.9054    0.8273 N.2      1 ZINC000028821318   -0.6400
4      C4     -1.0070    3.2174    0.7949 C.2      1 ZINC000028821318    0.4700
5      N5     -2.0610    4.0578    1.0348 N.pl3    1 ZINC000028821318   -0.6200
6      C6     -3.3771    3.5062    1.3659 C.3      1 ZINC000028821318    0.0900
7      H7     -3.4023    2.4337    1.5588 H        1 ZINC000028821318    0.1500
8      C8     -4.5965    4.1302    0.6844 C.3      1 ZINC000028821318   -0.1800
9      C9     -4.3323    4.3911    2.1694 C.3      1 ZINC000028821318   -0.1100
10     H10    -3.9816    5.3839    2.4514 H        1 ZINC000028821318    0.1200
11     C11    -5.2366    3.7137    3.1666 C.ar     1 ZINC000028821318   -0.0600
12     C12    -6.1366    2.7539    2.7428 C.ar     1 ZINC000028821318   -0.1200
13     C13    -6.9661    2.1325    3.6575 C.ar     1 ZINC000028821318   -0.1200
14     C14    -6.8953    2.4706    4.9960 C.ar     1 ZINC000028821318   -0.1200
15     C15    -5.9946    3.4297    5.4199 C.ar     1 ZINC000028821318   -0.1200
16     C16    -5.1621    4.0480    4.5058 C.ar     1 ZINC000028821318   -0.1100
17     S17     0.6494    3.6954    0.3824 S.3      1 ZINC000028821318   -0.0200
18     C18     1.2482    2.0269    0.2768 C.2      1 ZINC000028821318   -0.2500
19     C19     2.5026    1.6026   -0.0167 C.2      1 ZINC000028821318    0.0600
20     C20     3.5967    2.5751   -0.1408 C.ar     1 ZINC000028821318   -0.0900
21     C21     4.7548    2.2385   -0.8696 C.ar     1 ZINC000028821318   -0.0700
22     C22     5.7774    3.1202   -0.9981 C.ar     1 ZINC000028821318   -0.0900
23     C23     5.6944    4.3922   -0.4002 C.ar     1 ZINC000028821318    0.1400
24     N24     6.6942    5.2707   -0.5188 N.ar     1 ZINC000028821318   -0.4800
25     C25     6.6293    6.4586    0.0328 C.ar     1 ZINC000028821318    0.1400
26     C26     5.5191    6.8660    0.7693 C.ar     1 ZINC000028821318   -0.1700
27     C27     4.4607    6.0182    0.9307 C.ar     1 ZINC000028821318   -0.0500
28     C28     4.5337    4.7425    0.3360 C.ar     1 ZINC000028821318   -0.1000
29     C29     3.4824    3.8249    0.4563 C.ar     1 ZINC000028821318   -0.0700
30     H30    -1.9362    5.0185    0.9855 H        1 ZINC000028821318    0.4300
31     H31    -4.4195    4.9512   -0.0104 H        1 ZINC000028821318    0.1100
32     H32    -5.4241    3.4683    0.4292 H        1 ZINC000028821318    0.1200
33     H33    -6.1920    2.4897    1.6971 H        1 ZINC000028821318    0.1200
34     H34    -7.6698    1.3831    3.3264 H        1 ZINC000028821318    0.1200
35     H35    -7.5439    1.9856    5.7106 H        1 ZINC000028821318    0.1200
36     H36    -5.9395    3.6941    6.4656 H        1 ZINC000028821318    0.1200
37     H37    -4.4584    4.7974    4.8369 H        1 ZINC000028821318    0.1200
38     H38     2.6971    0.5498   -0.1590 H        1 ZINC000028821318    0.1600
39     H39     4.8293    1.2653   -1.3317 H        1 ZINC000028821318    0.1400
40     H40     6.6577    2.8457   -1.5603 H        1 ZINC000028821318    0.1400
41     H41     7.4591    7.1394   -0.0867 H        1 ZINC000028821318    0.1600
42     H42     5.4957    7.8507    1.2122 H        1 ZINC000028821318    0.1400
43     H43     3.5916    6.3171    1.4980 H        1 ZINC000028821318    0.1400
44     H44     2.5933    4.0844    1.0117 H        1 ZINC000028821318    0.1400
@<TRIPOS>BOND
1     1     2     2
2     2     18    1
3     2     3     1
4     3     4     2
5     4     5     1
6     4     17    1
7     5     6     1
8     5     30    1
9     6     7     1
10    6     9     1
11    6     8     1
12    8     9     1
13    8     31    1
14    8     32    1
15    9     10    1
16    9     11    1
17    11    16    ar
18    11    12    ar
19    12    13    ar
20    12    33    1
21    13    14    ar
22    13    34    1
23    14    15    ar
24    14    35    1
25    15    16    ar
26    15    36    1
27    16    37    1
28    17    18    1
29    18    19    2
30    19    20    1
31    19    38    1
32    20    29    ar
33    20    21    ar
34    21    22    ar
35    21    39    1
36    22    23    ar
37    22    40    1
38    23    28    ar
39    23    24    ar
40    24    25    ar
41    25    26    ar
42    25    41    1
43    26    27    ar
44    26    42    1
45    27    28    ar
46    27    43    1
47    28    29    ar
48    29    44    1
@<TRIPOS>SUBSTRUCTURE
1   ZINC000028821318 1     RESIDUE    1   A     ZIN   1
