@<TRIPOS>MOLECULE
ZINC000038601018
  27   28    0    0    0
SMALL
USER_CHARGES
NO_NAME
@<TRIPOS>ATOM
    1 O1        0.0021    -0.0041     0.0020 O.co2  1 <0>      -0.7000
    2 C2       -0.0145     1.2150     0.0087 C.2    1 <0>       0.4900
    3 O3        1.0330     1.8389     0.0021 O.co2  1 <0>      -0.7000
    4 C4       -1.3296     1.9507     0.0190 C.3    1 <0>      -0.1700
    5 C5       -2.4790     0.9408     0.0189 C.3    1 <0>      -0.1100
    6 C6       -3.7941     1.6764     0.0292 C.2    1 <0>       0.5000
    7 O7       -3.8106     2.8893     0.0358 O.2    1 <0>      -0.4900
    8 N8       -4.9521     0.9868     0.0309 N.am   1 <0>      -0.6400
    9 C9       -6.1733     1.6699     0.0404 C.2    1 <0>       0.3300
   10 N10      -6.3314     2.9667     0.0425 N.2    1 <0>      -0.2300
   11 N11      -7.6935     3.2836     0.0528 N.pl3  1 <0>      -0.5000
   12 C12      -8.4257     2.1248     0.0574 C.ar   1 <0>       0.1500
   13 C13      -9.7906     1.8484     0.0672 C.ar   1 <0>      -0.1400
   14 C14     -10.2225     0.5405     0.0694 C.ar   1 <0>       0.0200
   15 Cl15    -11.9241     0.1969     0.0817 Cl     1 <0>      -0.0600
   16 C16      -9.3085    -0.5073     0.0615 C.ar   1 <0>      -0.1600
   17 C17      -7.9665    -0.2587     0.0522 C.ar   1 <0>      -0.0200
   18 C18      -7.5042     1.0603     0.0434 C.ar   1 <0>      -0.1800
   19 H19      -1.3917     2.5717     0.9126 H      1 <0>       0.0700
   20 H20      -1.4001     2.5813    -0.8673 H      1 <0>       0.0700
   21 H21      -2.4169     0.3198    -0.8748 H      1 <0>       0.1000
   22 H22      -2.4085     0.3101     0.9052 H      1 <0>       0.1000
   23 H23      -4.9389     0.0169     0.0256 H      1 <0>       0.4200
   24 H24      -8.0617     4.1810     0.0566 H      1 <0>       0.4400
   25 H25     -10.5075     2.6561     0.0734 H      1 <0>       0.1400
   26 H26      -9.6637    -1.5272     0.0630 H      1 <0>       0.1400
   27 H27      -7.2638    -1.0788     0.0465 H      1 <0>       0.1400
@<TRIPOS>BOND
   1    1    2 ar
   2    2    3 ar
   3    2    4 1
   4    4    5 1
   5    4   19 1
   6    4   20 1
   7    5    6 1
   8    5   21 1
   9    5   22 1
  10    6    7 2
  11    6    8 am
  12    8    9 1
  13    8   23 1
  14    9   18 1
  15    9   10 2
  16   10   11 1
  17   11   12 1
  18   11   24 1
  19   12   18 ar
  20   12   13 ar
  21   13   14 ar
  22   13   25 1
  23   14   15 1
  24   14   16 ar
  25   16   17 ar
  26   16   26 1
  27   17   18 ar
  28   17   27 1
