@<TRIPOS>MOLECULE
ZINC000002540737
37    39    1     0     0
SMALL
USER_CHARGES
@<TRIPOS>ATOM
1      C1     -0.0187    1.5258    0.0104 C.3      1 ZINC000002540737   -0.1500
2      C2      0.0021   -0.0041    0.0020 C.3      1 ZINC000002540737   -0.1200
3      C3      0.7182   -0.4975   -1.2568 C.3      1 ZINC000002540737   -0.1100
4      C4      0.7390   -2.0273   -1.2652 C.3      1 ZINC000002540737   -0.0500
5      C5      1.4443   -2.5133   -2.5051 C.2      1 ZINC000002540737   -0.1200
6      C6      0.8657   -2.7761   -3.7034 C.2      1 ZINC000002540737    0.1500
7      C7     -0.5734   -2.6307   -4.0080 C.ar     1 ZINC000002540737   -0.0500
8      C8     -1.5305   -3.1029   -3.1079 C.ar     1 ZINC000002540737   -0.0700
9      C9     -2.8715   -2.9650   -3.3953 C.ar     1 ZINC000002540737   -0.1400
10     C10    -3.2710   -2.3578   -4.5787 C.ar     1 ZINC000002540737    0.1200
11     O11    -4.5937   -2.2242   -4.8586 O.3      1 ZINC000002540737   -0.5000
12     C12    -2.3221   -1.8864   -5.4765 C.ar     1 ZINC000002540737   -0.1400
13     C13    -0.9792   -2.0157   -5.1939 C.ar     1 ZINC000002540737   -0.0800
14     N14     1.8286   -3.1993   -4.5915 N.pl3    1 ZINC000002540737   -0.5600
15     C15     3.0478   -3.2094   -3.9547 C.ar     1 ZINC000002540737    0.2400
16     N16     4.2732   -3.5276   -4.3466 N.ar     1 ZINC000002540737   -0.4500
17     C17     5.2804   -3.4394   -3.4970 C.ar     1 ZINC000002540737    0.0900
18     C18     5.0693   -3.0161   -2.1935 C.ar     1 ZINC000002540737    0.0400
19     N19     3.8575   -2.6950   -1.7832 N.ar     1 ZINC000002540737   -0.4000
20     C20     2.8317   -2.7718   -2.6298 C.ar     1 ZINC000002540737    0.0600
21     H21     1.0039    1.9031    0.0027 H        1 ZINC000002540737    0.0500
22     H22    -0.5459    1.8868   -0.8726 H        1 ZINC000002540737    0.0500
23     H23    -0.5289    1.8773    0.9072 H        1 ZINC000002540737    0.0500
24     H24     0.5293   -0.3651    0.8851 H        1 ZINC000002540737    0.0600
25     H25    -1.0205   -0.3814    0.0098 H        1 ZINC000002540737    0.0600
26     H26     0.1910   -0.1364   -2.1398 H        1 ZINC000002540737    0.0600
27     H27     1.7408   -0.1202   -1.2645 H        1 ZINC000002540737    0.0600
28     H28     1.2661   -2.3884   -0.3821 H        1 ZINC000002540737    0.0800
29     H29    -0.2836   -2.4046   -1.2575 H        1 ZINC000002540737    0.0700
30     H30    -1.2206   -3.5758   -2.1877 H        1 ZINC000002540737    0.1400
31     H31    -3.6125   -3.3300   -2.6995 H        1 ZINC000002540737    0.1400
32     H32    -4.9830   -1.4005   -4.5347 H        1 ZINC000002540737    0.4000
33     H33    -2.6367   -1.4148   -6.3957 H        1 ZINC000002540737    0.1400
34     H34    -0.2418   -1.6489   -5.8925 H        1 ZINC000002540737    0.1300
35     H35     1.6728   -3.4499   -5.5155 H        1 ZINC000002540737    0.4200
36     H36     6.2775   -3.6996   -3.8202 H        1 ZINC000002540737    0.1800
37     H37     5.9025   -2.9491   -1.5097 H        1 ZINC000002540737    0.1700
@<TRIPOS>BOND
1     1     2     1
2     1     21    1
3     1     22    1
4     1     23    1
5     2     3     1
6     2     24    1
7     2     25    1
8     3     4     1
9     3     26    1
10    3     27    1
11    4     5     1
12    4     28    1
13    4     29    1
14    5     20    1
15    5     6     2
16    6     7     1
17    6     14    1
18    7     13    ar
19    7     8     ar
20    8     9     ar
21    8     30    1
22    9     10    ar
23    9     31    1
24    10    11    1
25    10    12    ar
26    11    32    1
27    12    13    ar
28    12    33    1
29    13    34    1
30    14    15    1
31    14    35    1
32    15    20    ar
33    15    16    ar
34    16    17    ar
35    17    18    ar
36    17    36    1
37    18    19    ar
38    18    37    1
39    19    20    ar
@<TRIPOS>SUBSTRUCTURE
1   ZINC000002540737 1     RESIDUE    1   A     ZIN   1
