@<TRIPOS>MOLECULE
ZINC000002007261
  46   47    0    0    0
SMALL
USER_CHARGES
NO_NAME
@<TRIPOS>ATOM
    1 N1       -0.1340     1.3274     0.2011 N.am   1 <0>      -0.8400
    2 C2       -0.1361    -0.0011    -0.0261 C.2    1 <0>       0.5900
    3 O3        0.7164    -0.4978    -0.7375 O.2    1 <0>      -0.5500
    4 C4       -1.1700    -0.8509     0.5865 C.ar   1 <0>      -0.3600
    5 C5       -2.2363    -0.2876     1.2953 C.ar   1 <0>       0.2600
    6 N6       -3.1435    -1.0840     1.8303 N.ar   1 <0>      -0.6000
    7 C7       -3.0581    -2.4028     1.7054 C.ar   1 <0>       0.6200
    8 N8       -4.0308    -3.1930     2.2818 N.pl3  1 <0>      -0.6900
    9 C9       -5.1361    -2.5743     3.0178 C.3    1 <0>       0.1400
   10 C10      -6.0670    -3.6649     3.5516 C.3    1 <0>      -0.1300
   11 C11      -7.2214    -3.0187     4.3203 C.3    1 <0>      -0.1500
   12 C12      -8.1524    -4.1093     4.8540 C.3    1 <0>      -0.0100
   13 N13      -9.2607    -3.4889     5.5921 N.4    1 <0>      -0.6400
   14 H14      -9.8746    -4.2081     5.9441 H      1 <0>       0.4400
   15 H15      -8.8927    -2.9534     6.3640 H      1 <0>       0.4400
   16 H16      -9.7760    -2.8791     4.9751 H      1 <0>       0.4400
   17 N17      -2.0678    -2.9836     1.0441 N.ar   1 <0>      -0.6200
   18 C18      -1.1161    -2.2572     0.4700 C.ar   1 <0>       0.5200
   19 N19      -0.0863    -2.8661    -0.2179 N.pl3  1 <0>      -0.6200
   20 C20      -0.1105    -4.2471    -0.4340 C.ar   1 <0>       0.1500
   21 C21      -1.3196    -4.8979    -0.6425 C.ar   1 <0>      -0.0800
   22 C22      -1.3399    -6.2624    -0.8556 C.ar   1 <0>      -0.1000
   23 C23      -0.1584    -6.9805    -0.8612 C.ar   1 <0>      -0.0900
   24 C24       1.0474    -6.3356    -0.6534 C.ar   1 <0>      -0.1600
   25 C25       2.3327    -7.1224    -0.6603 C.3    1 <0>       0.5100
   26 F26       2.0517    -8.4727    -0.8946 F      1 <0>      -0.1700
   27 F27       3.1704    -6.6383    -1.6709 F      1 <0>      -0.1700
   28 F28       2.9692    -6.9866     0.5780 F      1 <0>      -0.1800
   29 C29       1.0754    -4.9707    -0.4464 C.ar   1 <0>      -0.0900
   30 H30       0.5474     1.8874    -0.2026 H      1 <0>       0.4100
   31 H31      -0.8162     1.7240     0.7652 H      1 <0>       0.4000
   32 H32      -2.3162     0.7840     1.4039 H      1 <0>       0.1700
   33 H33      -3.9829    -4.1584     2.1997 H      1 <0>       0.4200
   34 H34      -4.7385    -1.9958     3.8517 H      1 <0>       0.0700
   35 H35      -5.6928    -1.9156     2.3513 H      1 <0>       0.0700
   36 H36      -6.4646    -4.2434     2.7177 H      1 <0>       0.0800
   37 H37      -5.5104    -4.3236     4.2181 H      1 <0>       0.0800
   38 H38      -6.8238    -2.4402     5.1542 H      1 <0>       0.0900
   39 H39      -7.7781    -2.3600     3.6537 H      1 <0>       0.0900
   40 H40      -8.5499    -4.6878     4.0201 H      1 <0>       0.1300
   41 H41      -7.5957    -4.7680     5.5206 H      1 <0>       0.1300
   42 H42       0.6543    -2.3359    -0.5516 H      1 <0>       0.4400
   43 H43      -2.2429    -4.3377    -0.6376 H      1 <0>       0.1400
   44 H44      -2.2798    -6.7691    -1.0178 H      1 <0>       0.1400
   45 H45      -0.1771    -8.0475    -1.0277 H      1 <0>       0.1400
   46 H46       2.0173    -4.4677    -0.2846 H      1 <0>       0.1400
@<TRIPOS>BOND
   1    1    2 am
   2    1   30 1
   3    1   31 1
   4    2    3 2
   5    2    4 1
   6    4   18 ar
   7    4    5 ar
   8    5    6 ar
   9    5   32 1
  10    6    7 ar
  11    7    8 1
  12    7   17 ar
  13    8    9 1
  14    8   33 1
  15    9   10 1
  16    9   34 1
  17    9   35 1
  18   10   11 1
  19   10   36 1
  20   10   37 1
  21   11   12 1
  22   11   38 1
  23   11   39 1
  24   12   13 1
  25   12   40 1
  26   12   41 1
  27   13   14 1
  28   13   15 1
  29   13   16 1
  30   17   18 ar
  31   18   19 1
  32   19   20 1
  33   19   42 1
  34   20   29 ar
  35   20   21 ar
  36   21   22 ar
  37   21   43 1
  38   22   23 ar
  39   22   44 1
  40   23   24 ar
  41   23   45 1
  42   24   25 1
  43   24   29 ar
  44   25   26 1
  45   25   27 1
  46   25   28 1
  47   29   46 1
