@<TRIPOS>MOLECULE
ZINC000095565739
77    83    1     0     0
SMALL
USER_CHARGES
@<TRIPOS>ATOM
1      C1      0.8845   -1.0714   -1.2976 C.3      1 ZINC000095565739   -0.1400
2      C2      0.7559   -2.0850   -0.1588 C.3      1 ZINC000095565739   -0.0200
3      C3      1.7452   -3.2306   -0.3817 C.3      1 ZINC000095565739   -0.1400
4      C4      1.0586   -1.4078    1.1530 C.2      1 ZINC000095565739    0.3200
5      N5      2.2153   -0.9174    1.4892 N.2      1 ZINC000095565739   -0.4700
6      C6      2.1412   -0.3801    2.7347 C.ar     1 ZINC000095565739    0.0500
7      C7      3.0658    0.2622    3.5618 C.ar     1 ZINC000095565739   -0.0600
8      C8      2.6775    0.7061    4.8056 C.ar     1 ZINC000095565739   -0.1200
9      C9      1.3748    0.5203    5.2450 C.ar     1 ZINC000095565739   -0.1000
10     C10     0.4496   -0.1117    4.4410 C.ar     1 ZINC000095565739   -0.1000
11     C11     0.8229   -0.5652    3.1844 C.ar     1 ZINC000095565739    0.0600
12     N12     0.1580   -1.2144    2.1592 N.pl3    1 ZINC000095565739   -0.4300
13     C13    -1.1811   -1.6011    2.1562 C.ar     1 ZINC000095565739    0.5800
14     N14    -1.6683   -2.2283    3.2174 N.ar     1 ZINC000095565739   -0.5500
15     C15    -2.9382   -2.6165    3.2626 C.ar     1 ZINC000095565739    0.4400
16     N16    -3.4388   -3.2710    4.3759 N.3      1 ZINC000095565739   -0.4600
17     C17    -4.6019   -2.5600    4.9264 C.3      1 ZINC000095565739    0.0200
18     C18    -5.1584   -3.3472    6.1158 C.3      1 ZINC000095565739    0.0700
19     O19    -4.1246   -3.5275    7.0873 O.3      1 ZINC000095565739   -0.3800
20     C20    -2.9767   -4.2172    6.5852 C.3      1 ZINC000095565739    0.0600
21     C21    -2.3981   -3.4389    5.4006 C.3      1 ZINC000095565739    0.0200
22     C22    -3.7621   -2.3484    2.1573 C.ar     1 ZINC000095565739   -0.0300
23     N23    -5.0651   -2.5898    1.8612 N.2      1 ZINC000095565739   -0.5000
24     C24    -5.3335   -2.1219    0.6705 C.2      1 ZINC000095565739    0.4800
25     O25    -6.5402   -2.1910    0.0612 O.3      1 ZINC000095565739   -0.2500
26     C26    -7.5962   -2.8273    0.7836 C.3      1 ZINC000095565739    0.0700
27     C27    -8.7303   -1.8707    1.1939 C.3      1 ZINC000095565739   -0.0100
28     N28    -9.3637   -2.2273   -0.0948 N.3      1 ZINC000095565739   -0.4600
29     C29   -10.8078   -2.4406    0.0696 C.3      1 ZINC000095565739    0.0300
30     C30   -11.4808   -1.1072    0.3817 C.3      1 ZINC000095565739   -0.1000
31     C31   -12.9323   -1.3407    0.8064 C.3      1 ZINC000095565739   -0.6000
32     S32   -13.8469   -2.0650   -0.5862 S.o2     1 ZINC000095565739    2.4100
33     O33   -15.1072   -2.5214   -0.1145 O.2      1 ZINC000095565739   -0.9400
34     O34   -13.8003   -1.1598   -1.6807 O.2      1 ZINC000095565739   -0.9300
35     C35   -12.8153   -3.5082   -0.9778 C.3      1 ZINC000095565739   -0.6000
36     C36   -11.3762   -3.0431   -1.2119 C.3      1 ZINC000095565739   -0.1000
37     C37    -8.6366   -3.5158   -0.1182 C.3      1 ZINC000095565739    0.0100
38     N38    -4.2136   -1.5516    0.1332 N.pl3    1 ZINC000095565739   -0.4600
39     C39    -4.1100   -0.9175   -1.1834 C.3      1 ZINC000095565739    0.0800
40     C40    -3.2019   -1.6816    1.0558 C.ar     1 ZINC000095565739    0.3200
41     N41    -1.9229   -1.3247    1.0972 N.ar     1 ZINC000095565739   -0.5200
42     H42     1.8999   -0.6756   -1.3189 H        1 ZINC000095565739    0.0700
43     H43     0.6655   -1.5611   -2.2465 H        1 ZINC000095565739    0.0700
44     H44     0.1796   -0.2552   -1.1389 H        1 ZINC000095565739    0.0600
45     H45    -0.2595   -2.4808   -0.1376 H        1 ZINC000095565739    0.0900
46     H46     2.7606   -2.8349   -0.4029 H        1 ZINC000095565739    0.0700
47     H47     1.6536   -3.9528    0.4297 H        1 ZINC000095565739    0.0500
48     H48     1.5263   -3.7204   -1.3305 H        1 ZINC000095565739    0.0700
49     H49     4.0818    0.4097    3.2267 H        1 ZINC000095565739    0.1300
50     H50     3.3928    1.2025    5.4446 H        1 ZINC000095565739    0.1300
51     H51     1.0834    0.8728    6.2234 H        1 ZINC000095565739    0.1300
52     H52    -0.5628   -0.2536    4.7890 H        1 ZINC000095565739    0.1200
53     H53    -4.2983   -1.5668    5.2572 H        1 ZINC000095565739    0.0600
54     H54    -5.3701   -2.4695    4.1584 H        1 ZINC000095565739    0.1100
55     H55    -5.9855   -2.7953    6.5625 H        1 ZINC000095565739    0.1100
56     H56    -5.5115   -4.3205    5.7750 H        1 ZINC000095565739    0.0700
57     H57    -2.2258   -4.2946    7.3715 H        1 ZINC000095565739    0.1100
58     H58    -3.2663   -5.2158    6.2581 H        1 ZINC000095565739    0.0600
59     H59    -1.5575   -3.9899    4.9788 H        1 ZINC000095565739    0.1000
60     H60    -2.0592   -2.4597    5.7391 H        1 ZINC000095565739    0.0700
61     H61    -7.2354   -3.4570    1.5968 H        1 ZINC000095565739    0.1200
62     H62    -9.2920   -2.2043    2.0665 H        1 ZINC000095565739    0.0900
63     H63    -8.4227   -0.8270    1.2582 H        1 ZINC000095565739    0.1000
64     H64   -10.9772   -3.1302    0.8966 H        1 ZINC000095565739    0.0600
65     H65   -10.9429   -0.6108    1.1893 H        1 ZINC000095565739    0.0900
66     H66   -11.4608   -0.4753   -0.5062 H        1 ZINC000095565739    0.1000
67     H67   -12.9586   -2.0243    1.6550 H        1 ZINC000095565739    0.1300
68     H68   -13.3875   -0.3909    1.0872 H        1 ZINC000095565739    0.1400
69     H69   -12.8405   -4.2112   -0.1452 H        1 ZINC000095565739    0.1300
70     H70   -13.1929   -3.9930   -1.8780 H        1 ZINC000095565739    0.1400
71     H71   -11.3626   -2.2921   -2.0018 H        1 ZINC000095565739    0.1000
72     H72   -10.7655   -3.8942   -1.5135 H        1 ZINC000095565739    0.0900
73     H73    -8.2543   -3.7864   -1.1024 H        1 ZINC000095565739    0.1100
74     H74    -9.1710   -4.3305    0.3705 H        1 ZINC000095565739    0.1000
75     H75    -4.3458    0.1430   -1.0954 H        1 ZINC000095565739    0.0800
76     H76    -3.0952   -1.0337   -1.5638 H        1 ZINC000095565739    0.1000
77     H77    -4.8119   -1.3901   -1.8704 H        1 ZINC000095565739    0.1000
@<TRIPOS>BOND
1     1     2     1
2     1     42    1
3     1     43    1
4     1     44    1
5     2     3     1
6     2     4     1
7     2     45    1
8     3     46    1
9     3     47    1
10    3     48    1
11    4     12    1
12    4     5     2
13    5     6     1
14    6     11    ar
15    6     7     ar
16    7     8     ar
17    7     49    1
18    8     9     ar
19    8     50    1
20    9     10    ar
21    9     51    1
22    10    11    ar
23    10    52    1
24    11    12    1
25    12    13    1
26    13    41    ar
27    13    14    ar
28    14    15    ar
29    15    16    1
30    15    22    ar
31    16    21    1
32    16    17    1
33    17    18    1
34    17    53    1
35    17    54    1
36    18    19    1
37    18    55    1
38    18    56    1
39    19    20    1
40    20    21    1
41    20    57    1
42    20    58    1
43    21    59    1
44    21    60    1
45    22    40    ar
46    22    23    1
47    23    24    2
48    24    25    1
49    24    38    1
50    25    26    1
51    26    37    1
52    26    27    1
53    26    61    1
54    27    28    1
55    27    62    1
56    27    63    1
57    28    29    1
58    28    37    1
59    29    36    1
60    29    30    1
61    29    64    1
62    30    31    1
63    30    65    1
64    30    66    1
65    31    32    1
66    31    67    1
67    31    68    1
68    32    33    2
69    32    34    2
70    32    35    1
71    35    36    1
72    35    69    1
73    35    70    1
74    36    71    1
75    36    72    1
76    37    73    1
77    37    74    1
78    38    39    1
79    38    40    1
80    39    75    1
81    39    76    1
82    39    77    1
83    40    41    ar
@<TRIPOS>SUBSTRUCTURE
1   ZINC000095565739 1     RESIDUE    1   A     ZIN   1
