@<TRIPOS>MOLECULE
ZINC000084688294
53    56    1     0     0
SMALL
USER_CHARGES
@<TRIPOS>ATOM
1      C1      2.2172   -3.7502    1.0106 C.3      1 ZINC000084688294    0.0400
2      O2      1.3539   -2.7817    0.3586 O.3      1 ZINC000084688294   -0.3500
3      C3      0.0609   -3.1141    0.2199 C.2      1 ZINC000084688294    0.4400
4      O4     -0.3365   -4.1791    0.6296 O.2      1 ZINC000084688294   -0.4700
5      C5     -0.8953   -2.1591   -0.4470 C.3      1 ZINC000084688294    0.1900
6      H6     -0.9224   -1.2232    0.1111 H        1 ZINC000084688294    0.1600
7      C7     -0.4352   -1.8901   -1.8566 C.ar     1 ZINC000084688294   -0.1000
8      C8      0.0137   -2.9314   -2.6474 C.ar     1 ZINC000084688294   -0.0900
9      C9      0.4358   -2.6853   -3.9403 C.ar     1 ZINC000084688294   -0.1000
10     C10     0.4090   -1.3967   -4.4431 C.ar     1 ZINC000084688294   -0.0200
11     Cl11    0.9384   -1.0869   -6.0671 Cl       1 ZINC000084688294   -0.0600
12     C12    -0.0404   -0.3550   -3.6512 C.ar     1 ZINC000084688294   -0.1000
13     C13    -0.4676   -0.6031   -2.3603 C.ar     1 ZINC000084688294   -0.0800
14     N14    -2.2355   -2.7499   -0.4751 N.am     1 ZINC000084688294   -0.5700
15     C15    -3.2134   -2.1793    0.2267 C.2      1 ZINC000084688294    0.5700
16     O16    -2.9400   -1.1893    0.8777 O.2      1 ZINC000084688294   -0.5100
17     C17    -4.5981   -2.6633    0.2675 C.ar     1 ZINC000084688294   -0.1000
18     C18    -5.6231   -1.7030    0.2482 C.ar     1 ZINC000084688294   -0.0400
19     C19    -6.9424   -2.0891    0.2791 C.ar     1 ZINC000084688294   -0.0800
20     C20    -7.2707   -3.4341    0.3299 C.ar     1 ZINC000084688294   -0.1300
21     C21    -8.7176   -3.8541    0.3606 C.3      1 ZINC000084688294    0.5100
22     F22    -9.5337   -2.7182    0.3298 F        1 ZINC000084688294   -0.1700
23     F23    -8.9938   -4.6571   -0.7513 F        1 ZINC000084688294   -0.1700
24     F24    -8.9686   -4.5770    1.5317 F        1 ZINC000084688294   -0.1700
25     C25    -6.2779   -4.3881    0.3519 C.ar     1 ZINC000084688294   -0.0900
26     C26    -4.9313   -4.0165    0.3233 C.ar     1 ZINC000084688294    0.1600
27     N27    -3.9931   -5.0316    0.3596 N.am     1 ZINC000084688294   -0.5900
28     C28    -2.8721   -5.0753   -0.3542 C.2      1 ZINC000084688294    0.2400
29     S29    -1.9247   -6.3577   -0.2332 S.2      1 ZINC000084688294   -0.3300
30     C30    -2.4711   -3.9499   -1.2780 C.3      1 ZINC000084688294    0.2000
31     H31    -1.5569   -4.2196   -1.8067 H        1 ZINC000084688294    0.1500
32     C32    -3.5739   -3.6966   -2.2734 C.ar     1 ZINC000084688294   -0.1100
33     C33    -3.8335   -2.4090   -2.7042 C.ar     1 ZINC000084688294   -0.0800
34     C34    -4.8447   -2.1761   -3.6172 C.ar     1 ZINC000084688294   -0.1000
35     C35    -5.5972   -3.2319   -4.0998 C.ar     1 ZINC000084688294   -0.0200
36     Cl36   -6.8672   -2.9403   -5.2469 Cl       1 ZINC000084688294   -0.0600
37     C37    -5.3370   -4.5204   -3.6683 C.ar     1 ZINC000084688294   -0.1000
38     C38    -4.3217   -4.7527   -2.7596 C.ar     1 ZINC000084688294   -0.0900
39     H39     3.2330   -3.3576    1.0579 H        1 ZINC000084688294    0.1000
40     H40     1.8534   -3.9393    2.0206 H        1 ZINC000084688294    0.0600
41     H41     2.2133   -4.6806    0.4429 H        1 ZINC000084688294    0.0700
42     H42     0.0350   -3.9372   -2.2548 H        1 ZINC000084688294    0.1300
43     H43     0.7869   -3.4988   -4.5579 H        1 ZINC000084688294    0.1400
44     H44    -0.0613    0.6512   -4.0430 H        1 ZINC000084688294    0.1400
45     H45    -0.8187    0.2099   -1.7422 H        1 ZINC000084688294    0.1400
46     H46    -5.3730   -0.6532    0.2083 H        1 ZINC000084688294    0.1500
47     H47    -7.7234   -1.3433    0.2643 H        1 ZINC000084688294    0.1600
48     H48    -6.5429   -5.4344    0.3919 H        1 ZINC000084688294    0.1500
49     H49    -4.1675   -5.7754    0.9573 H        1 ZINC000084688294    0.4300
50     H50    -3.2462   -1.5848   -2.3271 H        1 ZINC000084688294    0.1300
51     H51    -5.0477   -1.1700   -3.9534 H        1 ZINC000084688294    0.1400
52     H52    -5.9243   -5.3450   -4.0445 H        1 ZINC000084688294    0.1400
53     H53    -4.1182   -5.7585   -2.4229 H        1 ZINC000084688294    0.1300
@<TRIPOS>BOND
1     1     2     1
2     1     39    1
3     1     40    1
4     1     41    1
5     2     3     1
6     3     4     2
7     3     5     1
8     5     6     1
9     5     7     1
10    5     14    1
11    7     13    ar
12    7     8     ar
13    8     9     ar
14    8     42    1
15    9     10    ar
16    9     43    1
17    10    11    1
18    10    12    ar
19    12    13    ar
20    12    44    1
21    13    45    1
22    14    30    1
23    14    15    am
24    15    16    2
25    15    17    1
26    17    26    ar
27    17    18    ar
28    18    19    ar
29    18    46    1
30    19    20    ar
31    19    47    1
32    20    21    1
33    20    25    ar
34    21    22    1
35    21    23    1
36    21    24    1
37    25    26    ar
38    25    48    1
39    26    27    1
40    27    28    am
41    27    49    1
42    28    29    2
43    28    30    1
44    30    31    1
45    30    32    1
46    32    38    ar
47    32    33    ar
48    33    34    ar
49    33    50    1
50    34    35    ar
51    34    51    1
52    35    36    1
53    35    37    ar
54    37    38    ar
55    37    52    1
56    38    53    1
@<TRIPOS>SUBSTRUCTURE
1   ZINC000084688294 1     RESIDUE    1   A     ZIN   1
