@<TRIPOS>MOLECULE
ZINC000001905707
  41   44    0    0    0
SMALL
USER_CHARGES
NO_NAME
@<TRIPOS>ATOM
    1 N1        0.0175    -1.1399    -0.0042 N.1    1 <0>      -0.4300
    2 C2        0.0021    -0.0041     0.0020 C.1    1 <0>       0.2000
    3 C3       -0.0179     1.4678     0.0101 C.3    1 <0>      -0.0200
    4 C4        1.4175     1.9974    -0.0007 C.3    1 <0>      -0.0800
    5 C5        1.3971     3.5042     0.0075 C.ar   1 <0>      -0.0900
    6 C6        1.3705     4.2038    -1.1864 C.ar   1 <0>      -0.0800
    7 C7        1.3715     5.5821    -1.1852 C.ar   1 <0>      -0.1400
    8 C8        1.4014     6.2943     0.0155 C.ar   1 <0>       0.1800
    9 N9        1.4982     7.6721    -0.0643 N.am   1 <0>      -0.6600
   10 C10       0.8812     8.5917     0.6733 C.2    1 <0>       0.5300
   11 O11       1.0948     9.7649     0.4519 O.2    1 <0>      -0.5200
   12 C12      -0.0770     8.2168     1.7767 C.3    1 <0>      -0.0700
   13 C13       0.6918     7.4153     2.7978 C.2    1 <0>      -0.1400
   14 C14       1.3621     6.2653     2.5316 C.2    1 <0>       0.1200
   15 N15       1.9817     5.8191     3.6828 N.pl3  1 <0>      -0.5800
   16 C16       1.6930     6.6631     4.7168 C.ar   1 <0>       0.1400
   17 C17       2.0588     6.6479     6.0606 C.ar   1 <0>      -0.1300
   18 C18       1.5800     7.6780     6.8530 C.ar   1 <0>      -0.0600
   19 C19       0.7731     8.6848     6.3496 C.ar   1 <0>      -0.2100
   20 C20       0.2936     9.7691     7.2799 C.3    1 <0>       0.5100
   21 F21       0.7913     9.5338     8.5661 F      1 <0>      -0.1800
   22 F22       0.7494    11.0105     6.8234 F      1 <0>      -0.1800
   23 F23      -1.1050     9.7695     7.3139 F      1 <0>      -0.1800
   24 C24       0.3964     8.7268     5.0296 C.ar   1 <0>       0.0000
   25 C25       0.8669     7.6987     4.2053 C.ar   1 <0>      -0.1000
   26 C26       1.3917     5.5873     1.2183 C.ar   1 <0>      -0.0500
   27 C27       1.3991     4.1879     1.2037 C.ar   1 <0>      -0.0800
   28 H28      -0.5451     1.8289    -0.8729 H      1 <0>       0.1100
   29 H29      -0.5281     1.8193     0.9069 H      1 <0>       0.1100
   30 H30       1.9447     1.6363     0.8823 H      1 <0>       0.0800
   31 H31       1.9277     1.6458    -0.8975 H      1 <0>       0.0900
   32 H32       1.3493     3.6672    -2.1234 H      1 <0>       0.1400
   33 H33       1.3493     6.1171    -2.1231 H      1 <0>       0.1400
   34 H34       2.0954     8.0128    -0.7485 H      1 <0>       0.4100
   35 H35      -0.4780     9.1182     2.2401 H      1 <0>       0.1200
   36 H36      -0.8907     7.6155     1.3712 H      1 <0>       0.1100
   37 H37       2.5372     5.0265     3.7471 H      1 <0>       0.4200
   38 H38       2.6867     5.8684     6.4662 H      1 <0>       0.1400
   39 H39       1.8448     7.6966     7.8998 H      1 <0>       0.1400
   40 H40      -0.2334     9.5158     4.6461 H      1 <0>       0.1400
   41 H41       1.4111     3.6411     2.1350 H      1 <0>       0.1300
@<TRIPOS>BOND
   1    1    2 3
   2    2    3 1
   3    3    4 1
   4    3   28 1
   5    3   29 1
   6    4    5 1
   7    4   30 1
   8    4   31 1
   9    5   27 ar
  10    5    6 ar
  11    6    7 ar
  12    6   32 1
  13    7    8 ar
  14    7   33 1
  15    8   26 ar
  16    8    9 1
  17    9   10 am
  18    9   34 1
  19   10   11 2
  20   10   12 1
  21   12   13 1
  22   12   35 1
  23   12   36 1
  24   13   25 1
  25   13   14 2
  26   14   15 1
  27   14   26 1
  28   15   16 1
  29   15   37 1
  30   16   25 ar
  31   16   17 ar
  32   17   18 ar
  33   17   38 1
  34   18   19 ar
  35   18   39 1
  36   19   20 1
  37   19   24 ar
  38   20   21 1
  39   20   22 1
  40   20   23 1
  41   24   25 ar
  42   24   40 1
  43   26   27 ar
  44   27   41 1
