@<TRIPOS>MOLECULE
ZINC000019796087
65    67    1     0     0
SMALL
USER_CHARGES
@<TRIPOS>ATOM
1      C1     -4.0018    1.7741   -0.3393 C.3      1 ZINC000019796087    0.0300
2      O2     -3.5758    0.4481   -0.6589 O.3      1 ZINC000019796087   -0.3500
3      C3     -2.3151    0.1102   -0.3158 C.2      1 ZINC000019796087    0.5300
4      O4     -1.5977    0.9209    0.2398 O.2      1 ZINC000019796087   -0.4900
5      C5     -1.8278   -1.1861   -0.6021 C.2      1 ZINC000019796087   -0.2400
6      C6     -1.4450   -1.4827   -1.8561 C.2      1 ZINC000019796087    0.2000
7      C7     -1.5503   -0.4346   -2.9339 C.3      1 ZINC000019796087   -0.1400
8      N8     -0.9606   -2.7242   -2.1658 N.pl3    1 ZINC000019796087   -0.6200
9      C9     -0.5196   -3.5597   -1.1761 C.2      1 ZINC000019796087    0.2700
10     C10     0.3632   -4.7293   -1.5279 C.3      1 ZINC000019796087   -0.1300
11     C11    -0.8645   -3.3502    0.1061 C.2      1 ZINC000019796087   -0.2900
12     C12    -0.3841   -4.2294    1.1042 C.2      1 ZINC000019796087    0.5300
13     O13     0.4012   -5.1116    0.8112 O.2      1 ZINC000019796087   -0.5000
14     O14    -0.7964   -4.0899    2.3816 O.3      1 ZINC000019796087   -0.3700
15     C15    -0.3615   -5.0802    3.3155 C.3      1 ZINC000019796087    0.0400
16     C16    -1.0067   -4.8153    4.6772 C.3      1 ZINC000019796087    0.0000
17     N17    -0.4932   -3.5528    5.2251 N.4      1 ZINC000019796087   -0.3900
18     H18    -0.6365   -2.8123    4.5548 H        1 ZINC000019796087    0.4300
19     C19     0.9424   -3.6885    5.5053 C.3      1 ZINC000019796087   -0.0600
20     C20    -1.2067   -3.2325    6.4686 C.3      1 ZINC000019796087    0.0400
21     C21    -0.7791   -1.8724    6.9570 C.ar     1 ZINC000019796087   -0.1600
22     C22     0.2466   -1.7594    7.8768 C.ar     1 ZINC000019796087   -0.1000
23     C23     0.6388   -0.5119    8.3249 C.ar     1 ZINC000019796087   -0.1200
24     C24     0.0056    0.6226    7.8528 C.ar     1 ZINC000019796087   -0.0800
25     C25    -1.0195    0.5096    6.9323 C.ar     1 ZINC000019796087   -0.1100
26     C26    -1.4089   -0.7376    6.4810 C.ar     1 ZINC000019796087   -0.0900
27     C27    -1.7432   -2.2002    0.5032 C.3      1 ZINC000019796087    0.1000
28     H28    -1.3370   -1.7308    1.3991 H        1 ZINC000019796087    0.0900
29     C29    -3.1294   -2.7132    0.7970 C.ar     1 ZINC000019796087   -0.0700
30     C30    -3.8092   -3.4508   -0.1539 C.ar     1 ZINC000019796087   -0.0500
31     C31    -5.0810   -3.9215    0.1157 C.ar     1 ZINC000019796087   -0.1100
32     C32    -5.6723   -3.6549    1.3362 C.ar     1 ZINC000019796087   -0.0500
33     C33    -4.9918   -2.9179    2.2877 C.ar     1 ZINC000019796087   -0.0400
34     N34    -5.6253   -2.6319    3.5945 N.pl3    1 ZINC000019796087    0.0300
35     O35    -6.7802   -2.9618    3.7967 O.2      1 ZINC000019796087   -0.1500
36     O36    -4.9917   -2.0666    4.4677 O.2      1 ZINC000019796087   -0.1700
37     C37    -3.7188   -2.4510    2.0198 C.ar     1 ZINC000019796087   -0.0500
38     H38    -3.9410    1.9255    0.7384 H        1 ZINC000019796087    0.0600
39     H39    -3.3579    2.4942   -0.8443 H        1 ZINC000019796087    0.0700
40     H40    -5.0315    1.9142   -0.6684 H        1 ZINC000019796087    0.1100
41     H41    -0.6023    0.0968   -3.0177 H        1 ZINC000019796087    0.1000
42     H42    -1.7836   -0.9136   -3.8848 H        1 ZINC000019796087    0.0900
43     H43    -2.3410    0.2708   -2.6787 H        1 ZINC000019796087    0.0900
44     H44    -0.9300   -3.0135   -3.0912 H        1 ZINC000019796087    0.4300
45     H45     0.5370   -4.7426   -2.6038 H        1 ZINC000019796087    0.0700
46     H46     1.3160   -4.6349   -1.0070 H        1 ZINC000019796087    0.1100
47     H47    -0.1250   -5.6563   -1.2272 H        1 ZINC000019796087    0.1000
48     H48    -0.6548   -6.0682    2.9604 H        1 ZINC000019796087    0.1100
49     H49     0.7233   -5.0363    3.4127 H        1 ZINC000019796087    0.0900
50     H50    -2.0882   -4.7473    4.5598 H        1 ZINC000019796087    0.1400
51     H51    -0.7658   -5.6316    5.3583 H        1 ZINC000019796087    0.1500
52     H52     1.1013   -4.5179    6.1946 H        1 ZINC000019796087    0.1300
53     H53     1.4775   -3.8813    4.5755 H        1 ZINC000019796087    0.1200
54     H54     1.3138   -2.7671    5.9539 H        1 ZINC000019796087    0.1300
55     H55    -2.2804   -3.2302    6.2811 H        1 ZINC000019796087    0.1400
56     H56    -0.9716   -3.9808    7.2255 H        1 ZINC000019796087    0.1400
57     H57     0.7413   -2.6457    8.2456 H        1 ZINC000019796087    0.1300
58     H58     1.4397   -0.4236    9.0440 H        1 ZINC000019796087    0.1300
59     H59     0.3115    1.5973    8.2034 H        1 ZINC000019796087    0.1300
60     H60    -1.5145    1.3960    6.5638 H        1 ZINC000019796087    0.1400
61     H61    -2.2098   -0.8259    5.7619 H        1 ZINC000019796087    0.1400
62     H62    -3.3472   -3.6591   -1.1075 H        1 ZINC000019796087    0.1300
63     H63    -5.6125   -4.4972   -0.6276 H        1 ZINC000019796087    0.1500
64     H64    -6.6660   -4.0219    1.5465 H        1 ZINC000019796087    0.1600
65     H65    -3.1873   -1.8752    2.7631 H        1 ZINC000019796087    0.1400
@<TRIPOS>BOND
1     1     2     1
2     1     38    1
3     1     39    1
4     1     40    1
5     2     3     1
6     3     4     2
7     3     5     1
8     5     27    1
9     5     6     2
10    6     7     1
11    6     8     1
12    7     41    1
13    7     42    1
14    7     43    1
15    8     9     1
16    8     44    1
17    9     10    1
18    9     11    2
19    10    45    1
20    10    46    1
21    10    47    1
22    11    12    1
23    11    27    1
24    12    13    2
25    12    14    1
26    14    15    1
27    15    16    1
28    15    48    1
29    15    49    1
30    16    17    1
31    16    50    1
32    16    51    1
33    17    18    1
34    17    19    1
35    17    20    1
36    19    52    1
37    19    53    1
38    19    54    1
39    20    21    1
40    20    55    1
41    20    56    1
42    21    26    ar
43    21    22    ar
44    22    23    ar
45    22    57    1
46    23    24    ar
47    23    58    1
48    24    25    ar
49    24    59    1
50    25    26    ar
51    25    60    1
52    26    61    1
53    27    28    1
54    27    29    1
55    29    37    ar
56    29    30    ar
57    30    31    ar
58    30    62    1
59    31    32    ar
60    31    63    1
61    32    33    ar
62    32    64    1
63    33    34    1
64    33    37    ar
65    34    35    2
66    34    36    2
67    37    65    1
@<TRIPOS>SUBSTRUCTURE
1   ZINC000019796087 1     RESIDUE    1   A     ZIN   1
