@<TRIPOS>MOLECULE
ZINC000000967180
20    20    1     0     0
SMALL
USER_CHARGES
@<TRIPOS>ATOM
1      C1     -0.0187    1.5258    0.0104 C.3      1 ZINC000000967180   -0.1500
2      C2      0.0021   -0.0041    0.0020 C.3      1 ZINC000000967180   -0.0800
3      C3     -1.4117   -0.5257    0.0127 C.ar     1 ZINC000000967180   -0.1400
4      C4     -2.0228   -0.8662    1.2043 C.ar     1 ZINC000000967180    0.1000
5      N5     -3.2599   -1.3230    1.2217 N.ar     1 ZINC000000967180   -0.4900
6      C6     -3.9594   -1.4726    0.1141 C.ar     1 ZINC000000967180    0.0900
7      C7     -3.4140   -1.1530   -1.1152 C.ar     1 ZINC000000967180   -0.1700
8      C8     -2.1179   -0.6645   -1.1727 C.ar     1 ZINC000000967180   -0.0400
9      C9     -1.4870   -0.3045   -2.4931 C.3      1 ZINC000000967180   -0.1200
10     H10     1.0039    1.9031    0.0027 H        1 ZINC000000967180    0.0600
11     H11    -0.5459    1.8868   -0.8726 H        1 ZINC000000967180    0.0600
12     H12    -0.5289    1.8773    0.9072 H        1 ZINC000000967180    0.0600
13     H13     0.5123   -0.3556   -0.8948 H        1 ZINC000000967180    0.0800
14     H14     0.5293   -0.3651    0.8851 H        1 ZINC000000967180    0.0800
15     H15    -1.4809   -0.7575    2.1322 H        1 ZINC000000967180    0.1500
16     H16    -4.9700   -1.8496    0.1678 H        1 ZINC000000967180    0.1600
17     H17    -3.9918   -1.2781   -2.0190 H        1 ZINC000000967180    0.1300
18     H18    -1.6924    0.7415   -2.7207 H        1 ZINC000000967180    0.0800
19     H19    -0.4096   -0.4589   -2.4351 H        1 ZINC000000967180    0.0700
20     H20    -1.9028   -0.9357   -3.2785 H        1 ZINC000000967180    0.0700
@<TRIPOS>BOND
1     1     2     1
2     1     10    1
3     1     11    1
4     1     12    1
5     2     3     1
6     2     13    1
7     2     14    1
8     3     8     ar
9     3     4     ar
10    4     5     ar
11    4     15    1
12    5     6     ar
13    6     7     ar
14    6     16    1
15    7     8     ar
16    7     17    1
17    8     9     1
18    9     18    1
19    9     19    1
20    9     20    1
@<TRIPOS>SUBSTRUCTURE
1   ZINC000000967180 1     RESIDUE    1   A     ZIN   1
