@<TRIPOS>MOLECULE
ZINC000003817388
  44   48    0    0    0
SMALL
USER_CHARGES
NO_NAME
@<TRIPOS>ATOM
    1 O1        0.0036     0.0376    -0.4473 O.2    1 <0>      -0.5000
    2 C2       -0.0137     1.2409    -0.2287 C.2    1 <0>       0.4100
    3 C3       -1.2394     1.9442    -0.1402 C.2    1 <0>      -0.2600
    4 C4       -1.2175     3.2832     0.1043 C.2    1 <0>       0.1700
    5 C5       -2.4868     4.0274     0.1989 C.ar   1 <0>      -0.0300
    6 C6       -3.4492     3.6385     1.1306 C.ar   1 <0>      -0.0600
    7 C7       -4.6342     4.3358     1.2164 C.ar   1 <0>      -0.1000
    8 C8       -4.8637     5.4128     0.3824 C.ar   1 <0>      -0.0600
    9 C9       -3.9123     5.8178    -0.5571 C.ar   1 <0>      -0.1100
   10 C10      -2.7162     5.1317    -0.6504 C.ar   1 <0>      -0.0800
   11 S11      -1.4523     5.5527    -1.7900 S.3    1 <0>       0.0500
   12 C12      -1.5878     7.2837    -2.0339 C.ar   1 <0>      -0.1100
   13 C13      -0.4177     7.9853    -2.3353 C.ar   1 <0>      -0.0800
   14 C14      -0.4424     9.3490    -2.5402 C.ar   1 <0>      -0.1000
   15 C15      -1.6385    10.0352    -2.4478 C.ar   1 <0>      -0.1000
   16 C16      -2.7991     9.3515    -2.1513 C.ar   1 <0>      -0.0800
   17 C17      -2.7843     7.9703    -1.9407 C.ar   1 <0>      -0.1100
   18 S18      -4.3085     7.1978    -1.5638 S.3    1 <0>       0.0500
   19 O19      -0.0512     3.9352     0.2612 O.3    1 <0>      -0.2300
   20 C20       1.1290     3.3006     0.1837 C.2    1 <0>       0.4100
   21 N21       2.2936     4.0111     0.3516 N.pl3  1 <0>      -0.6000
   22 C22       3.5345     3.6025    -0.3254 C.3    1 <0>       0.0900
   23 C23       4.1204     4.8254    -1.0404 C.3    1 <0>       0.0400
   24 O24       4.2305     5.9061    -0.1110 O.3    1 <0>      -0.3700
   25 C25       2.9803     6.3481     0.4233 C.3    1 <0>       0.0500
   26 C26       2.3347     5.2064     1.2088 C.3    1 <0>       0.0800
   27 C27       1.1874     1.9609    -0.0528 C.2    1 <0>      -0.3800
   28 H28      -2.1784     1.4257    -0.2653 H      1 <0>       0.1600
   29 H29      -3.2665     2.7956     1.7806 H      1 <0>       0.1500
   30 H30      -5.3840     4.0401     1.9354 H      1 <0>       0.1500
   31 H31      -5.7965     5.9519     0.4579 H      1 <0>       0.1400
   32 H32       0.5189     7.4525    -2.4084 H      1 <0>       0.1300
   33 H33       0.4697     9.8787    -2.7724 H      1 <0>       0.1400
   34 H34      -1.6642    11.1031    -2.6069 H      1 <0>       0.1400
   35 H35      -3.7318     9.8913    -2.0801 H      1 <0>       0.1400
   36 H36       4.2482     3.2301     0.4095 H      1 <0>       0.0900
   37 H37       3.3154     2.8215    -1.0536 H      1 <0>       0.1000
   38 H38       5.1076     4.5799    -1.4319 H      1 <0>       0.1100
   39 H39       3.4645     5.1162    -1.8610 H      1 <0>       0.0600
   40 H40       3.1473     7.1981     1.0849 H      1 <0>       0.1100
   41 H41       2.3203     6.6444    -0.3919 H      1 <0>       0.0600
   42 H42       1.3222     5.4870     1.4989 H      1 <0>       0.1000
   43 H43       2.9263     4.9928     2.0991 H      1 <0>       0.0800
   44 H44       2.1409     1.4572    -0.1134 H      1 <0>       0.1500
@<TRIPOS>BOND
   1    1    2 2
   2    2   27 1
   3    2    3 1
   4    3    4 2
   5    3   28 1
   6    4    5 1
   7    4   19 1
   8    5   10 ar
   9    5    6 ar
  10    6    7 ar
  11    6   29 1
  12    7    8 ar
  13    7   30 1
  14    8    9 ar
  15    8   31 1
  16    9   18 1
  17    9   10 ar
  18   10   11 1
  19   11   12 1
  20   12   17 ar
  21   12   13 ar
  22   13   14 ar
  23   13   32 1
  24   14   15 ar
  25   14   33 1
  26   15   16 ar
  27   15   34 1
  28   16   17 ar
  29   16   35 1
  30   17   18 1
  31   19   20 1
  32   20   21 1
  33   20   27 2
  34   21   26 1
  35   21   22 1
  36   22   23 1
  37   22   36 1
  38   22   37 1
  39   23   24 1
  40   23   38 1
  41   23   39 1
  42   24   25 1
  43   25   26 1
  44   25   40 1
  45   25   41 1
  46   26   42 1
  47   26   43 1
  48   27   44 1
