@<TRIPOS>MOLECULE
ZINC000149645112
50    54    1     0     0
SMALL
USER_CHARGES
@<TRIPOS>ATOM
1      C1     -0.0187    1.5258    0.0104 C.3      1 ZINC000149645112   -0.1300
2      C2      0.0021   -0.0041    0.0020 C.3      1 ZINC000149645112    0.2000
3      C3     -1.4306   -0.5410   -0.0061 C.3      1 ZINC000149645112   -0.1700
4      O4      0.7038   -0.4734   -1.1570 O.3      1 ZINC000149645112   -0.3600
5      C5      0.9860   -1.8753   -1.1393 C.3      1 ZINC000149645112    0.0400
6      C6      2.0625   -2.1718   -0.0876 C.3      1 ZINC000149645112    0.0800
7      N7      1.6767   -1.5087    1.1630 N.pl3    1 ZINC000149645112   -0.4600
8      C8      2.1293   -1.7187    2.4213 C.ar     1 ZINC000149645112    0.3000
9      N9      3.0279   -2.5439    2.9520 N.ar     1 ZINC000149645112   -0.5200
10     C10     3.2263   -2.4786    4.2668 C.ar     1 ZINC000149645112    0.4300
11     C11     4.2253   -3.3944    4.8657 C.ar     1 ZINC000149645112   -0.2200
12     C12     4.4769   -3.3805    6.2411 C.ar     1 ZINC000149645112    0.2500
13     N13     5.3746   -4.2126    6.7371 N.ar     1 ZINC000149645112   -0.5700
14     C14     6.0323   -5.0522    5.9497 C.ar     1 ZINC000149645112    0.5800
15     N15     6.9639   -5.9068    6.5085 N.pl3    1 ZINC000149645112   -0.8100
16     N16     5.8215   -5.0956    4.6415 N.ar     1 ZINC000149645112   -0.5700
17     C17     4.9363   -4.2987    4.0708 C.ar     1 ZINC000149645112    0.2500
18     N18     2.5850   -1.6439    5.0731 N.ar     1 ZINC000149645112   -0.5700
19     C19     1.6680   -0.7806    4.6321 C.ar     1 ZINC000149645112    0.4500
20     N20     1.0044    0.0871    5.4818 N.3      1 ZINC000149645112   -0.4600
21     C21     1.1797    1.4821    5.0521 C.3      1 ZINC000149645112    0.0200
22     C22     0.3826    2.4008    5.9819 C.3      1 ZINC000149645112    0.0700
23     O23     0.8096    2.1921    7.3308 O.3      1 ZINC000149645112   -0.3800
24     C24     0.6524    0.8442    7.7824 C.3      1 ZINC000149645112    0.0600
25     C25     1.4522   -0.0903    6.8708 C.3      1 ZINC000149645112    0.0200
26     C26     1.4193   -0.8092    3.2463 C.ar     1 ZINC000149645112   -0.0800
27     N27     0.5897   -0.1110    2.4525 N.2      1 ZINC000149645112   -0.4300
28     C28     0.7318   -0.5123    1.2241 C.2      1 ZINC000149645112    0.2400
29     H29     1.0039    1.9031    0.0027 H        1 ZINC000149645112    0.0700
30     H30    -0.5459    1.8868   -0.8726 H        1 ZINC000149645112    0.0800
31     H31    -0.5289    1.8773    0.9072 H        1 ZINC000149645112    0.0900
32     H32    -1.9480   -0.1825   -0.8960 H        1 ZINC000149645112    0.0800
33     H33    -1.4101   -1.6308   -0.0121 H        1 ZINC000149645112    0.0600
34     H34    -1.9543   -0.1924    0.8840 H        1 ZINC000149645112    0.0800
35     H35     0.0775   -2.4251   -0.8936 H        1 ZINC000149645112    0.0700
36     H36     1.3429   -2.1859   -2.1213 H        1 ZINC000149645112    0.1300
37     H37     2.1330   -3.2476    0.0732 H        1 ZINC000149645112    0.1100
38     H38     3.0240   -1.7864   -0.4267 H        1 ZINC000149645112    0.1000
39     H39     3.9451   -2.6989    6.8884 H        1 ZINC000149645112    0.1800
40     H40     7.1287   -5.8868    7.4642 H        1 ZINC000149645112    0.4200
41     H41     7.4529   -6.5267    5.9449 H        1 ZINC000149645112    0.4200
42     H42     4.7694   -4.3397    3.0046 H        1 ZINC000149645112    0.1800
43     H43     2.2361    1.7468    5.0968 H        1 ZINC000149645112    0.0600
44     H44     0.8182    1.5963    4.0301 H        1 ZINC000149645112    0.1100
45     H45     0.5551    3.4401    5.7022 H        1 ZINC000149645112    0.1100
46     H46    -0.6797    2.1719    5.8968 H        1 ZINC000149645112    0.0700
47     H47     1.0201    0.7577    8.8048 H        1 ZINC000149645112    0.1100
48     H48    -0.4020    0.5700    7.7497 H        1 ZINC000149645112    0.0600
49     H49     1.2897   -1.1238    7.1764 H        1 ZINC000149645112    0.1000
50     H50     2.5130    0.1493    6.9446 H        1 ZINC000149645112    0.0700
@<TRIPOS>BOND
1     1     2     1
2     1     29    1
3     1     30    1
4     1     31    1
5     2     28    1
6     2     3     1
7     2     4     1
8     3     32    1
9     3     33    1
10    3     34    1
11    4     5     1
12    5     6     1
13    5     35    1
14    5     36    1
15    6     7     1
16    6     37    1
17    6     38    1
18    7     28    1
19    7     8     1
20    8     26    ar
21    8     9     ar
22    9     10    ar
23    10    11    1
24    10    18    ar
25    11    17    ar
26    11    12    ar
27    12    13    ar
28    12    39    1
29    13    14    ar
30    14    15    1
31    14    16    ar
32    15    40    1
33    15    41    1
34    16    17    ar
35    17    42    1
36    18    19    ar
37    19    20    1
38    19    26    ar
39    20    25    1
40    20    21    1
41    21    22    1
42    21    43    1
43    21    44    1
44    22    23    1
45    22    45    1
46    22    46    1
47    23    24    1
48    24    25    1
49    24    47    1
50    24    48    1
51    25    49    1
52    25    50    1
53    26    27    1
54    27    28    2
@<TRIPOS>SUBSTRUCTURE
1   ZINC000149645112 1     RESIDUE    1   A     ZIN   1
