@<TRIPOS>MOLECULE
ZINC000064539506
73    79    1     0     0
SMALL
USER_CHARGES
@<TRIPOS>ATOM
1      C1      0.5705    0.3832    5.1474 C.3      1 ZINC000064539506   -0.1400
2      C2      1.4119   -0.2590    4.0426 C.3      1 ZINC000064539506   -0.1400
3      C3      0.6520   -1.4114    3.4380 C.2      1 ZINC000064539506    0.5100
4      O4     -0.4844   -1.6416    3.7937 O.2      1 ZINC000064539506   -0.5400
5      N5      1.2351   -2.1861    2.5020 N.am     1 ZINC000064539506   -0.6200
6      C6      2.6484   -1.9986    2.1404 C.3      1 ZINC000064539506    0.1100
7      C7      3.3552   -3.3560    2.2190 C.3      1 ZINC000064539506    0.0400
8      N8      2.6277   -4.3317    1.3964 N.3      1 ZINC000064539506   -0.4800
9      C9      3.3301   -5.5374    1.3106 C.ar     1 ZINC000064539506    0.1800
10     C10     4.1796   -5.9211    2.3404 C.ar     1 ZINC000064539506   -0.1700
11     C11     4.8731   -7.1117    2.2555 C.ar     1 ZINC000064539506   -0.0500
12     C12     4.7219   -7.9255    1.1404 C.ar     1 ZINC000064539506    0.0900
13     N13     5.4259   -9.1338    1.0544 N.am     1 ZINC000064539506   -0.4600
14     C14     4.9508  -10.2310    1.6751 C.2      1 ZINC000064539506    0.5300
15     O15     3.9102  -10.1616    2.3067 O.2      1 ZINC000064539506   -0.5100
16     C16     5.6404  -11.4584    1.6038 C.2      1 ZINC000064539506   -0.2200
17     C17     6.8002  -11.5511    0.9044 C.2      1 ZINC000064539506    0.0000
18     C18     7.3030  -10.3988    0.2501 C.ar     1 ZINC000064539506   -0.1900
19     C19     8.5003  -10.4397   -0.4888 C.ar     1 ZINC000064539506    0.2000
20     N20     8.9614   -9.3745   -1.0914 N.ar     1 ZINC000064539506   -0.4900
21     C21     8.3291   -8.1926   -1.0433 C.ar     1 ZINC000064539506    0.1600
22     C22     8.8597   -7.0732   -1.7062 C.ar     1 ZINC000064539506   -0.0900
23     C23     8.2144   -5.8777   -1.6538 C.ar     1 ZINC000064539506   -0.0800
24     C24     7.0140   -5.7379   -0.9423 C.ar     1 ZINC000064539506   -0.0400
25     C25     6.3293   -4.4230   -0.9008 C.ar     1 ZINC000064539506   -0.1000
26     C26     5.2025   -4.2379   -0.0838 C.ar     1 ZINC000064539506    0.1100
27     N27     4.5782   -3.0889   -0.0277 N.ar     1 ZINC000064539506   -0.4300
28     C28     4.9820   -2.0346   -0.7445 C.ar     1 ZINC000064539506    0.1300
29     C29     4.2988   -0.8083   -0.6706 C.ar     1 ZINC000064539506   -0.1000
30     C30     4.7285    0.2510   -1.4092 C.ar     1 ZINC000064539506   -0.1000
31     C31     5.8399    0.1434   -2.2429 C.ar     1 ZINC000064539506   -0.1100
32     C32     6.5277   -1.0272   -2.3415 C.ar     1 ZINC000064539506   -0.1000
33     C33     6.1125   -2.1419   -1.5933 C.ar     1 ZINC000064539506   -0.1000
34     C34     6.8009   -3.3651   -1.6647 C.ar     1 ZINC000064539506   -0.0500
35     C35     6.4647   -6.8226   -0.2786 C.ar     1 ZINC000064539506   -0.1200
36     C36     7.1167   -8.0591   -0.3227 C.ar     1 ZINC000064539506   -0.1200
37     C37     6.5884   -9.1936    0.3362 C.ar     1 ZINC000064539506    0.2400
38     C38     3.8724   -7.5418    0.1104 C.ar     1 ZINC000064539506   -0.0400
39     C39     3.1742   -6.3546    0.1978 C.ar     1 ZINC000064539506   -0.1900
40     C40     2.2522   -5.9387   -0.9194 C.3      1 ZINC000064539506    0.5200
41     F41     2.3861   -6.8289   -1.9903 F        1 ZINC000064539506   -0.1800
42     F42     0.9299   -5.9539   -0.4628 F        1 ZINC000064539506   -0.1700
43     F43     2.5848   -4.6472   -1.3421 F        1 ZINC000064539506   -0.1500
44     C44     1.2676   -4.5500    1.9065 C.3      1 ZINC000064539506    0.0300
45     C45     0.4769   -3.2456    1.8194 C.3      1 ZINC000064539506    0.1200
46     H46     0.2852   -0.3767    5.8749 H        1 ZINC000064539506    0.0600
47     H47     1.1531    1.1599    5.6428 H        1 ZINC000064539506    0.0600
48     H48    -0.3262    0.8238    4.7116 H        1 ZINC000064539506    0.0600
49     H49     1.6241    0.4811    3.2709 H        1 ZINC000064539506    0.0900
50     H50     2.3487   -0.6230    4.4644 H        1 ZINC000064539506    0.0900
51     H51     2.7179   -1.6079    1.1252 H        1 ZINC000064539506    0.0900
52     H52     3.1152   -1.3019    2.8366 H        1 ZINC000064539506    0.0900
53     H53     4.3755   -3.2568    1.8485 H        1 ZINC000064539506    0.1200
54     H54     3.3752   -3.6962    3.2543 H        1 ZINC000064539506    0.0400
55     H55     4.2977   -5.2879    3.2073 H        1 ZINC000064539506    0.1600
56     H56     5.5336   -7.4101    3.0562 H        1 ZINC000064539506    0.1500
57     H57     5.2449  -12.3279    2.1076 H        1 ZINC000064539506    0.1600
58     H58     7.3322  -12.4892    0.8477 H        1 ZINC000064539506    0.1600
59     H59     9.0485  -11.3675   -0.5590 H        1 ZINC000064539506    0.1800
60     H60     9.7833   -7.1626   -2.2589 H        1 ZINC000064539506    0.1500
61     H61     8.6321   -5.0239   -2.1667 H        1 ZINC000064539506    0.1400
62     H62     4.8422   -5.0634    0.5121 H        1 ZINC000064539506    0.1700
63     H63     3.4352   -0.7071   -0.0299 H        1 ZINC000064539506    0.1400
64     H64     4.1992    1.1905   -1.3484 H        1 ZINC000064539506    0.1300
65     H65     6.1594    0.9996   -2.8185 H        1 ZINC000064539506    0.1300
66     H66     7.3878   -1.0987   -2.9907 H        1 ZINC000064539506    0.1300
67     H67     7.6681   -3.4794   -2.2981 H        1 ZINC000064539506    0.1400
68     H68     5.5403   -6.7141    0.2693 H        1 ZINC000064539506    0.1600
69     H69     3.7549   -8.1748   -0.7567 H        1 ZINC000064539506    0.1500
70     H70     0.7738   -5.3167    1.3095 H        1 ZINC000064539506    0.1100
71     H71     1.3166   -4.8736    2.9462 H        1 ZINC000064539506    0.0500
72     H72    -0.4928   -3.3723    2.3010 H        1 ZINC000064539506    0.1000
73     H73     0.3365   -2.9716    0.7738 H        1 ZINC000064539506    0.0800
@<TRIPOS>BOND
1     1     2     1
2     1     46    1
3     1     47    1
4     1     48    1
5     2     3     1
6     2     49    1
7     2     50    1
8     3     4     2
9     3     5     am
10    5     45    1
11    5     6     1
12    6     7     1
13    6     51    1
14    6     52    1
15    7     8     1
16    7     53    1
17    7     54    1
18    8     9     1
19    8     44    1
20    9     39    ar
21    9     10    ar
22    10    11    ar
23    10    55    1
24    11    12    ar
25    11    56    1
26    12    13    1
27    12    38    ar
28    13    37    1
29    13    14    am
30    14    15    2
31    14    16    1
32    16    17    2
33    16    57    1
34    17    18    1
35    17    58    1
36    18    37    ar
37    18    19    ar
38    19    20    ar
39    19    59    1
40    20    21    ar
41    21    36    ar
42    21    22    ar
43    22    23    ar
44    22    60    1
45    23    24    ar
46    23    61    1
47    24    25    1
48    24    35    ar
49    25    34    ar
50    25    26    ar
51    26    27    ar
52    26    62    1
53    27    28    ar
54    28    33    ar
55    28    29    ar
56    29    30    ar
57    29    63    1
58    30    31    ar
59    30    64    1
60    31    32    ar
61    31    65    1
62    32    33    ar
63    32    66    1
64    33    34    ar
65    34    67    1
66    35    36    ar
67    35    68    1
68    36    37    ar
69    38    39    ar
70    38    69    1
71    39    40    1
72    40    41    1
73    40    42    1
74    40    43    1
75    44    45    1
76    44    70    1
77    44    71    1
78    45    72    1
79    45    73    1
@<TRIPOS>SUBSTRUCTURE
1   ZINC000064539506 1     RESIDUE    1   A     ZIN   1
