@<TRIPOS>MOLECULE
ZINC000000896764
86    89    1     0     0
SMALL
USER_CHARGES
@<TRIPOS>ATOM
1      C1     -0.5369    4.9587    2.8364 C.3      1 ZINC000000896764   -0.1300
2      C2      0.9678    4.9267    2.9132 C.ar     1 ZINC000000896764   -0.0400
3      C3      1.7200    5.8265    2.1773 C.ar     1 ZINC000000896764    0.1000
4      O4      1.1011    6.7401    1.3838 O.3      1 ZINC000000896764   -0.4900
5      C5      3.1062    5.7963    2.2498 C.ar     1 ZINC000000896764   -0.1100
6      C6      3.7412    4.8693    3.0552 C.ar     1 ZINC000000896764   -0.1200
7      C7      3.0012    3.9675    3.7926 C.ar     1 ZINC000000896764   -0.0900
8      C8      1.6071    3.9940    3.7305 C.ar     1 ZINC000000896764   -0.1300
9      C9      0.8109    3.0297    4.5194 C.2      1 ZINC000000896764    0.5700
10     O10    -0.4003    3.0147    4.4178 O.2      1 ZINC000000896764   -0.4900
11     N11     1.4281    2.1674    5.3513 N.am     1 ZINC000000896764   -0.7300
12     C12     0.6392    1.2120    6.1330 C.3      1 ZINC000000896764    0.1400
13     H13    -0.3049    1.6725    6.4240 H        1 ZINC000000896764    0.1200
14     C14     0.3604   -0.0320    5.2870 C.3      1 ZINC000000896764   -0.1600
15     S15    -0.5644    0.4425    3.8004 S.3      1 ZINC000000896764   -0.0200
16     C16    -0.7888   -1.0932    2.9661 C.ar     1 ZINC000000896764   -0.1200
17     C17    -0.2886   -2.2659    3.5192 C.ar     1 ZINC000000896764   -0.1400
18     C18    -0.4662   -3.4675    2.8625 C.ar     1 ZINC000000896764   -0.1000
19     C19    -1.1411   -3.5049    1.6559 C.ar     1 ZINC000000896764   -0.1200
20     C20    -1.6399   -2.3398    1.1023 C.ar     1 ZINC000000896764   -0.1000
21     C21    -1.4714   -1.1354    1.7563 C.ar     1 ZINC000000896764   -0.1000
22     C22     1.4192    0.8117    7.3869 C.3      1 ZINC000000896764    0.0800
23     H23     1.6948    1.7068    7.9445 H        1 ZINC000000896764    0.1300
24     O24     2.6013    0.1045    7.0069 O.3      1 ZINC000000896764   -0.5500
25     C25     0.5468   -0.0876    8.2648 C.3      1 ZINC000000896764   -0.0700
26     N26     1.2541   -0.3836    9.5179 N.4      1 ZINC000000896764   -0.3500
27     H27     2.1688   -0.7535    9.3069 H        1 ZINC000000896764    0.4300
28     C28     0.4919   -1.3764   10.2852 C.3      1 ZINC000000896764   -0.0300
29     C29     1.2612   -1.7417   11.5554 C.3      1 ZINC000000896764   -0.1000
30     H30     2.2344   -2.1504   11.2836 H        1 ZINC000000896764    0.0900
31     C31     0.4792   -2.7834   12.3542 C.3      1 ZINC000000896764   -0.1100
32     C32    -0.8801   -2.2087   12.7574 C.3      1 ZINC000000896764   -0.1300
33     C33    -0.6677   -0.9600   13.6161 C.3      1 ZINC000000896764   -0.1200
34     C34     0.1049    0.0853   12.8101 C.3      1 ZINC000000896764   -0.1700
35     C35     1.4581   -0.4848   12.4067 C.3      1 ZINC000000896764   -0.1000
36     H36     2.0371   -0.7215   13.2994 H        1 ZINC000000896764    0.1100
37     C37     2.2079    0.5555   11.5664 C.3      1 ZINC000000896764   -0.1300
38     C38     1.3958    0.8497   10.3005 C.3      1 ZINC000000896764   -0.0100
39     H39     1.9200    1.5914    9.6977 H        1 ZINC000000896764    0.1600
40     C40     0.0411    1.3848   10.6870 C.2      1 ZINC000000896764    0.5400
41     O41    -0.9635    0.8687   10.2449 O.2      1 ZINC000000896764   -0.5300
42     N42    -0.0542    2.4368   11.5241 N.am     1 ZINC000000896764   -0.7000
43     C43    -1.3712    2.9569   11.8999 C.3      1 ZINC000000896764    0.1700
44     C44    -2.1744    1.8565   12.5963 C.3      1 ZINC000000896764   -0.1700
45     C45    -1.1988    4.1424   12.8517 C.3      1 ZINC000000896764   -0.1600
46     C46    -2.1159    3.4150   10.6443 C.3      1 ZINC000000896764   -0.1700
47     H47    -0.9316    5.5276    3.6782 H        1 ZINC000000896764    0.0700
48     H48    -0.8431    5.4311    1.9031 H        1 ZINC000000896764    0.0700
49     H49    -0.9243    3.9405    2.8725 H        1 ZINC000000896764    0.1000
50     H50     0.8994    7.5747    1.8285 H        1 ZINC000000896764    0.3900
51     H51     3.6906    6.4993    1.6748 H        1 ZINC000000896764    0.1400
52     H52     4.8198    4.8505    3.1072 H        1 ZINC000000896764    0.1400
53     H53     3.5004    3.2447    4.4208 H        1 ZINC000000896764    0.1300
54     H54     2.3946    2.1794    5.4324 H        1 ZINC000000896764    0.4100
55     H55     1.3045   -0.4925    4.9960 H        1 ZINC000000896764    0.0900
56     H56    -0.2266   -0.7429    5.8686 H        1 ZINC000000896764    0.1000
57     H57     0.2388   -2.2374    4.4612 H        1 ZINC000000896764    0.1100
58     H58    -0.0775   -4.3792    3.2915 H        1 ZINC000000896764    0.1200
59     H59    -1.2786   -4.4462    1.1446 H        1 ZINC000000896764    0.1300
60     H60    -2.1661   -2.3727    0.1597 H        1 ZINC000000896764    0.1300
61     H61    -1.8615   -0.2260    1.3236 H        1 ZINC000000896764    0.1300
62     H62     2.4314   -0.7051    6.5060 H        1 ZINC000000896764    0.3900
63     H63    -0.3906    0.4217    8.4883 H        1 ZINC000000896764    0.1700
64     H64     0.3378   -1.0182    7.7371 H        1 ZINC000000896764    0.1400
65     H65    -0.4783   -0.9595   10.5555 H        1 ZINC000000896764    0.1600
66     H66     0.3465   -2.2704    9.6789 H        1 ZINC000000896764    0.1300
67     H67     0.3299   -3.6728   11.7422 H        1 ZINC000000896764    0.0800
68     H68     1.0404   -3.0500   13.2498 H        1 ZINC000000896764    0.0800
69     H69    -1.4428   -1.9433   11.8624 H        1 ZINC000000896764    0.0600
70     H70    -1.4347   -2.9531   13.3288 H        1 ZINC000000896764    0.0800
71     H71    -1.6348   -0.5514   13.9090 H        1 ZINC000000896764    0.0700
72     H72    -0.0993   -1.2244   14.5078 H        1 ZINC000000896764    0.0700
73     H73    -0.4620    0.3460   11.9163 H        1 ZINC000000896764    0.1000
74     H74     0.2517    0.9773   13.4191 H        1 ZINC000000896764    0.0800
75     H75     2.3202    1.4753   12.1403 H        1 ZINC000000896764    0.1100
76     H76     3.1914    0.1684   11.2998 H        1 ZINC000000896764    0.1100
77     H77     0.7492    2.8495   11.8778 H        1 ZINC000000896764    0.4100
78     H78    -1.6439    1.5301   13.4908 H        1 ZINC000000896764    0.0700
79     H79    -3.1543    2.2435   12.8759 H        1 ZINC000000896764    0.0700
80     H80    -2.2973    1.0119   11.9183 H        1 ZINC000000896764    0.0800
81     H81    -0.6265    4.9263   12.3556 H        1 ZINC000000896764    0.0700
82     H82    -2.1786    4.5294   13.1313 H        1 ZINC000000896764    0.0800
83     H83    -0.6682    3.8160   13.7462 H        1 ZINC000000896764    0.0700
84     H84    -2.2387    2.5704    9.9663 H        1 ZINC000000896764    0.0800
85     H85    -3.0958    3.8020   10.9240 H        1 ZINC000000896764    0.0700
86     H86    -1.5437    4.1989   10.1483 H        1 ZINC000000896764    0.0600
@<TRIPOS>BOND
1     1     2     1
2     1     47    1
3     1     48    1
4     1     49    1
5     2     8     ar
6     2     3     ar
7     3     4     1
8     3     5     ar
9     4     50    1
10    5     6     ar
11    5     51    1
12    6     7     ar
13    6     52    1
14    7     8     ar
15    7     53    1
16    8     9     1
17    9     10    2
18    9     11    am
19    11    12    1
20    11    54    1
21    12    13    1
22    12    14    1
23    12    22    1
24    14    15    1
25    14    55    1
26    14    56    1
27    15    16    1
28    16    21    ar
29    16    17    ar
30    17    18    ar
31    17    57    1
32    18    19    ar
33    18    58    1
34    19    20    ar
35    19    59    1
36    20    21    ar
37    20    60    1
38    21    61    1
39    22    23    1
40    22    24    1
41    22    25    1
42    24    62    1
43    25    26    1
44    25    63    1
45    25    64    1
46    26    27    1
47    26    38    1
48    26    28    1
49    28    29    1
50    28    65    1
51    28    66    1
52    29    30    1
53    29    35    1
54    29    31    1
55    31    32    1
56    31    67    1
57    31    68    1
58    32    33    1
59    32    69    1
60    32    70    1
61    33    34    1
62    33    71    1
63    33    72    1
64    34    35    1
65    34    73    1
66    34    74    1
67    35    36    1
68    35    37    1
69    37    38    1
70    37    75    1
71    37    76    1
72    38    39    1
73    38    40    1
74    40    41    2
75    40    42    am
76    42    43    1
77    42    77    1
78    43    44    1
79    43    45    1
80    43    46    1
81    44    78    1
82    44    79    1
83    44    80    1
84    45    81    1
85    45    82    1
86    45    83    1
87    46    84    1
88    46    85    1
89    46    86    1
@<TRIPOS>SUBSTRUCTURE
1   ZINC000000896764 1     RESIDUE    1   A     ZIN   1
