@<TRIPOS>MOLECULE
ZINC000003814433
53    56    1     0     0
SMALL
USER_CHARGES
@<TRIPOS>ATOM
1      C1     -0.0281    1.4559   -0.1330 C.3      1 ZINC000003814433   -0.0500
2      N2     -0.0059   -0.0129   -0.1315 N.4      1 ZINC000003814433   -0.3800
3      H3     -0.9524   -0.3626   -0.1381 H        1 ZINC000003814433    0.4300
4      C4      0.6816   -0.4892    1.0747 C.3      1 ZINC000003814433   -0.0100
5      C5      0.6366   -2.0180    1.1220 C.3      1 ZINC000003814433   -0.1500
6      C6      1.3319   -2.5824   -0.1203 C.3      1 ZINC000003814433   -0.0400
7      C7      1.2229   -4.0854   -0.1197 C.ar     1 ZINC000003814433   -0.1500
8      C8     -0.0266   -4.6870   -0.1374 C.ar     1 ZINC000003814433    0.2000
9      O9     -1.1433   -3.9156   -0.1556 O.3      1 ZINC000003814433   -0.4800
10     C10    -0.1471   -6.0715   -0.1371 C.ar     1 ZINC000003814433   -0.2000
11     C11     0.9870   -6.8632   -0.1191 C.ar     1 ZINC000003814433    0.2500
12     O12     0.8751   -8.2153   -0.1192 O.3      1 ZINC000003814433   -0.4800
13     C13     2.2521   -6.2609   -0.1012 C.ar     1 ZINC000003814433   -0.3000
14     C14     2.3737   -4.8617   -0.1072 C.ar     1 ZINC000003814433    0.1800
15     O15     3.6805   -4.5180   -0.0871 O.3      1 ZINC000003814433   -0.2100
16     C16     4.4860   -5.6057   -0.0672 C.2      1 ZINC000003814433   -0.0300
17     C17     5.8412   -5.5987   -0.0438 C.2      1 ZINC000003814433   -0.0200
18     C18     6.5718   -4.3277   -0.1539 C.ar     1 ZINC000003814433   -0.0200
19     C19     7.9667   -4.3254   -0.2647 C.ar     1 ZINC000003814433   -0.1100
20     C20     8.6442   -3.1292   -0.3680 C.ar     1 ZINC000003814433   -0.0200
21     C21     7.9484   -1.9326   -0.3619 C.ar     1 ZINC000003814433   -0.6700
22     S22     8.8239   -0.4093   -0.4939 S.o2     1 ZINC000003814433    2.7000
23     N23     8.9425   -0.0501   -2.1061 N.am     1 ZINC000003814433   -1.2500
24     O24     7.9864    0.5858    0.0783 O.2      1 ZINC000003814433   -0.9600
25     O25    10.1464   -0.6661   -0.0417 O.2      1 ZINC000003814433   -0.9500
26     C26     6.5684   -1.9262   -0.2531 C.ar     1 ZINC000003814433   -0.0200
27     C27     5.8755   -3.1139   -0.1543 C.ar     1 ZINC000003814433   -0.1200
28     C28     3.6217   -6.7981   -0.0801 C.2      1 ZINC000003814433    0.4200
29     O29     3.9641   -7.9678   -0.0691 O.2      1 ZINC000003814433   -0.3900
30     C30     0.6533   -2.0202   -1.3727 C.3      1 ZINC000003814433   -0.1500
31     C31     0.6992   -0.4913   -1.3267 C.3      1 ZINC000003814433   -0.0100
32     H32     0.9939    1.8347   -0.1258 H        1 ZINC000003814433    0.1200
33     H33    -0.5408    1.8107   -1.0270 H        1 ZINC000003814433    0.1200
34     H34    -0.5539    1.8122    0.7529 H        1 ZINC000003814433    0.1200
35     H35     1.7196   -0.1572    1.0557 H        1 ZINC000003814433    0.1300
36     H36     0.1876   -0.0841    1.9578 H        1 ZINC000003814433    0.1300
37     H37     1.1492   -2.3697    2.0173 H        1 ZINC000003814433    0.1100
38     H38    -0.4011   -2.3512    1.1412 H        1 ZINC000003814433    0.1100
39     H39     2.3828   -2.2932   -0.1128 H        1 ZINC000003814433    0.1000
40     H40    -1.4536   -3.6937   -1.0442 H        1 ZINC000003814433    0.4000
41     H41    -1.1254   -6.5289   -0.1507 H        1 ZINC000003814433    0.1600
42     H42     0.8560   -8.6083   -1.0025 H        1 ZINC000003814433    0.4100
43     H43     6.3844   -6.5269    0.0558 H        1 ZINC000003814433    0.1800
44     H44     8.5111   -5.2582   -0.2689 H        1 ZINC000003814433    0.1500
45     H45     9.7208   -3.1257   -0.4536 H        1 ZINC000003814433    0.1500
46     H46     8.9766    0.8750   -2.3957 H        1 ZINC000003814433    0.4200
47     H47     8.9779   -0.7649   -2.7609 H        1 ZINC000003814433    0.4200
48     H48     6.0329   -0.9883   -0.2494 H        1 ZINC000003814433    0.1400
49     H49     4.7988   -3.1072   -0.0695 H        1 ZINC000003814433    0.1500
50     H50     1.1777   -2.3735   -2.2606 H        1 ZINC000003814433    0.1100
51     H51    -0.3840   -2.3534   -1.4053 H        1 ZINC000003814433    0.0900
52     H52     0.2172   -0.0868   -2.2167 H        1 ZINC000003814433    0.1300
53     H53     1.7372   -0.1603   -1.2945 H        1 ZINC000003814433    0.1300
@<TRIPOS>BOND
1     1     2     1
2     1     32    1
3     1     33    1
4     1     34    1
5     2     3     1
6     2     31    1
7     2     4     1
8     4     5     1
9     4     35    1
10    4     36    1
11    5     6     1
12    5     37    1
13    5     38    1
14    6     7     1
15    6     30    1
16    6     39    1
17    7     14    ar
18    7     8     ar
19    8     9     1
20    8     10    ar
21    9     40    1
22    10    11    ar
23    10    41    1
24    11    12    1
25    11    13    ar
26    12    42    1
27    13    28    1
28    13    14    ar
29    14    15    1
30    15    16    1
31    16    17    2
32    16    28    1
33    17    18    1
34    17    43    1
35    18    27    ar
36    18    19    ar
37    19    20    ar
38    19    44    1
39    20    21    ar
40    20    45    1
41    21    22    1
42    21    26    ar
43    22    23    am
44    22    24    2
45    22    25    2
46    23    46    1
47    23    47    1
48    26    27    ar
49    26    48    1
50    27    49    1
51    28    29    2
52    30    31    1
53    30    50    1
54    30    51    1
55    31    52    1
56    31    53    1
@<TRIPOS>SUBSTRUCTURE
1   ZINC000003814433 1     RESIDUE    1   A     ZIN   1
