@<TRIPOS>MOLECULE
ZINC000045338516
43    45    1     0     0
SMALL
USER_CHARGES
@<TRIPOS>ATOM
1      C1     -0.0176    1.4478    0.0100 C.3      1 ZINC000045338516    0.0600
2      O2      0.0021   -0.0041    0.0020 O.3      1 ZINC000045338516   -0.3700
3      C3     -1.1891   -0.6316    0.0100 C.2      1 ZINC000045338516    0.6500
4      O4     -2.2170    0.0163    0.0233 O.2      1 ZINC000045338516   -0.5700
5      N5     -1.2414   -1.9783    0.0033 N.am     1 ZINC000045338516   -0.7100
6      C6     -2.5375   -2.6611    0.0120 C.3      1 ZINC000045338516    0.1400
7      C7     -2.3165   -4.1750    0.0018 C.3      1 ZINC000045338516   -0.0700
8      C8     -3.6498   -4.8774    0.0107 C.2      1 ZINC000045338516    0.1300
9      C9     -4.4202   -5.1708   -1.0697 C.2      1 ZINC000045338516   -0.2600
10     C10    -5.6102   -5.8550   -0.5095 C.2      1 ZINC000045338516    0.0000
11     N11    -5.4318   -5.8941    0.7733 N.2      1 ZINC000045338516   -0.1900
12     N12    -4.3102   -5.3439    1.0951 N.pl3    1 ZINC000045338516   -0.3900
13     C13    -6.6823   -6.3264   -1.4078 C.2      1 ZINC000045338516    0.4900
14     O14    -7.7479   -6.7202   -0.9734 O.2      1 ZINC000045338516   -0.3900
15     C15    -6.4021   -6.2979   -2.8632 C.ar     1 ZINC000045338516   -0.1100
16     C16    -7.2933   -6.9396   -3.7302 C.ar     1 ZINC000045338516    0.1600
17     O17    -8.3863   -7.5705   -3.2326 O.3      1 ZINC000045338516   -0.3100
18     C18    -9.5797   -6.7953   -3.1022 C.3      1 ZINC000045338516    0.0400
19     C19    -7.0604   -6.9311   -5.1034 C.ar     1 ZINC000045338516   -0.0300
20     Cl20   -8.1717   -7.7289   -6.1721 Cl       1 ZINC000045338516   -0.0100
21     C21    -5.9520   -6.2920   -5.6190 C.ar     1 ZINC000045338516   -0.0300
22     Cl22   -5.6764   -6.2894   -7.3330 Cl       1 ZINC000045338516   -0.0100
23     C23    -5.0527   -5.6484   -4.7717 C.ar     1 ZINC000045338516    0.1600
24     O24    -3.9653   -5.0223   -5.2876 O.3      1 ZINC000045338516   -0.3100
25     C25    -4.1160   -3.6458   -5.6408 C.3      1 ZINC000045338516    0.0400
26     C26    -5.2694   -5.6463   -3.3905 C.ar     1 ZINC000045338516   -0.1100
27     C27    -4.2906   -4.9534   -2.5169 C.2      1 ZINC000045338516    0.4800
28     O28    -3.4212   -4.2379   -2.9776 O.2      1 ZINC000045338516   -0.4100
29     H29     1.0050    1.8251    0.0023 H        1 ZINC000045338516    0.1100
30     H30    -0.5448    1.8089   -0.8731 H        1 ZINC000045338516    0.0700
31     H31    -0.5278    1.7993    0.9068 H        1 ZINC000045338516    0.0600
32     H32    -0.4208   -2.4955   -0.0073 H        1 ZINC000045338516    0.4100
33     H33    -3.0899   -2.3806    0.9088 H        1 ZINC000045338516    0.0700
34     H34    -3.1069   -2.3711   -0.8710 H        1 ZINC000045338516    0.0800
35     H35    -1.7641   -4.4555   -0.8951 H        1 ZINC000045338516    0.1200
36     H36    -1.7471   -4.4651    0.8848 H        1 ZINC000045338516    0.1000
37     H37    -3.9834   -5.2674    2.0052 H        1 ZINC000045338516    0.4500
38     H38   -10.3751   -7.4187   -2.6937 H        1 ZINC000045338516    0.1100
39     H39    -9.3960   -5.9555   -2.4321 H        1 ZINC000045338516    0.0600
40     H40    -9.8782   -6.4205   -4.0812 H        1 ZINC000045338516    0.0500
41     H41    -3.1747   -3.2680   -6.0398 H        1 ZINC000045338516    0.1100
42     H42    -4.8961   -3.5477   -6.3957 H        1 ZINC000045338516    0.0500
43     H43    -4.3921   -3.0719   -4.7562 H        1 ZINC000045338516    0.0600
@<TRIPOS>BOND
1     1     2     1
2     1     29    1
3     1     30    1
4     1     31    1
5     2     3     1
6     3     4     2
7     3     5     am
8     5     6     1
9     5     32    1
10    6     7     1
11    6     33    1
12    6     34    1
13    7     8     1
14    7     35    1
15    7     36    1
16    8     12    1
17    8     9     2
18    9     27    1
19    9     10    1
20    10    11    2
21    10    13    1
22    11    12    1
23    12    37    1
24    13    14    2
25    13    15    1
26    15    26    ar
27    15    16    ar
28    16    17    1
29    16    19    ar
30    17    18    1
31    18    38    1
32    18    39    1
33    18    40    1
34    19    20    1
35    19    21    ar
36    21    22    1
37    21    23    ar
38    23    24    1
39    23    26    ar
40    24    25    1
41    25    41    1
42    25    42    1
43    25    43    1
44    26    27    1
45    27    28    2
@<TRIPOS>SUBSTRUCTURE
1   ZINC000045338516 1     RESIDUE    1   A     ZIN   1
