@<TRIPOS>MOLECULE
ZINC000003812888
72    73    1     0     0
SMALL
USER_CHARGES
@<TRIPOS>ATOM
1      C1      5.1738   -0.5555    3.8838 C.3      1 ZINC000003812888    0.0200
2      O2      5.8253   -1.8227    3.7754 O.3      1 ZINC000003812888   -0.3000
3      C3      5.8869   -2.3812    2.5369 C.ar     1 ZINC000003812888    0.1200
4      C4      5.3378   -1.7214    1.4498 C.ar     1 ZINC000003812888   -0.1700
5      C5      5.4018   -2.2905    0.1911 C.ar     1 ZINC000003812888   -0.1000
6      C6      6.0125   -3.5176    0.0144 C.ar     1 ZINC000003812888   -0.1100
7      C7      6.0790   -4.1335   -1.3594 C.3      1 ZINC000003812888   -0.0900
8      C8      7.3618   -3.6808   -2.0597 C.3      1 ZINC000003812888   -0.0100
9      N9      7.4267   -4.2811   -3.3989 N.4      1 ZINC000003812888   -0.3900
10     H10     6.5872   -4.0536   -3.9104 H        1 ZINC000003812888    0.4300
11     C11     7.5450   -5.7402   -3.2762 C.3      1 ZINC000003812888   -0.0600
12     C12     8.5952   -3.7537   -4.1159 C.3      1 ZINC000003812888   -0.0100
13     C13     8.5938   -4.2820   -5.5518 C.3      1 ZINC000003812888   -0.1600
14     C14     9.8109   -3.7326   -6.2986 C.3      1 ZINC000003812888   -0.1000
15     C15     9.8094   -4.2609   -7.7345 C.3      1 ZINC000003812888    0.1000
16     C16     9.8677   -5.7317   -7.7162 C.1      1 ZINC000003812888    0.2000
17     N17     9.9127   -6.8667   -7.7021 N.1      1 ZINC000003812888   -0.4100
18     C18    11.0082   -3.7198   -8.4701 C.ar     1 ZINC000003812888   -0.1000
19     C19    10.8335   -2.9904   -9.6309 C.ar     1 ZINC000003812888   -0.1100
20     C20    11.9303   -2.4921  -10.3098 C.ar     1 ZINC000003812888   -0.1800
21     C21    13.2077   -2.7232   -9.8264 C.ar     1 ZINC000003812888    0.1200
22     O22    14.2874   -2.2335  -10.4926 O.3      1 ZINC000003812888   -0.3000
23     C23    14.0311   -1.4889  -11.6850 C.3      1 ZINC000003812888    0.0200
24     C24    13.3837   -3.4575   -8.6570 C.ar     1 ZINC000003812888    0.1000
25     O25    14.6358   -3.6866   -8.1782 O.3      1 ZINC000003812888   -0.3000
26     C26    14.7403   -4.4478   -6.9733 C.3      1 ZINC000003812888    0.0300
27     C27    12.2804   -3.9494   -7.9790 C.ar     1 ZINC000003812888   -0.1600
28     C28     8.5303   -3.8100   -8.4425 C.3      1 ZINC000003812888   -0.0800
29     C29     8.4969   -2.2819   -8.5110 C.3      1 ZINC000003812888   -0.1800
30     C30     8.5024   -4.3848   -9.8602 C.3      1 ZINC000003812888   -0.1800
31     C31     6.5631   -4.1814    1.0954 C.ar     1 ZINC000003812888   -0.1700
32     C32     6.5071   -3.6145    2.3580 C.ar     1 ZINC000003812888    0.1100
33     O33     7.0481   -4.2659    3.4222 O.3      1 ZINC000003812888   -0.3000
34     C34     7.6589   -5.5321    3.1656 C.3      1 ZINC000003812888    0.0300
35     H35     5.6904    0.1733    3.2593 H        1 ZINC000003812888    0.0600
36     H36     4.1394   -0.6492    3.5530 H        1 ZINC000003812888    0.0600
37     H37     5.1945   -0.2239    4.9220 H        1 ZINC000003812888    0.1100
38     H38     4.8594   -0.7626    1.5852 H        1 ZINC000003812888    0.1400
39     H39     4.9733   -1.7750   -0.6557 H        1 ZINC000003812888    0.1300
40     H40     6.0773   -5.2199   -1.2711 H        1 ZINC000003812888    0.0900
41     H41     5.2150   -3.8150   -1.9426 H        1 ZINC000003812888    0.1000
42     H42     7.3636   -2.5944   -2.1481 H        1 ZINC000003812888    0.1300
43     H43     8.2259   -3.9993   -1.4766 H        1 ZINC000003812888    0.1300
44     H44     6.6779   -6.1316   -2.7442 H        1 ZINC000003812888    0.1300
45     H45     7.5931   -6.1857   -4.2699 H        1 ZINC000003812888    0.1200
46     H46     8.4518   -5.9860   -2.7236 H        1 ZINC000003812888    0.1200
47     H47     8.5521   -2.6646   -4.1294 H        1 ZINC000003812888    0.1400
48     H48     9.5065   -4.0749   -3.6115 H        1 ZINC000003812888    0.1300
49     H49     8.6369   -5.3711   -5.5382 H        1 ZINC000003812888    0.0900
50     H50     7.6825   -3.9607   -6.0562 H        1 ZINC000003812888    0.1000
51     H51     9.7677   -2.6435   -6.3121 H        1 ZINC000003812888    0.1000
52     H52    10.7222   -4.0539   -5.7942 H        1 ZINC000003812888    0.0900
53     H53     9.8381   -2.8095  -10.0089 H        1 ZINC000003812888    0.1600
54     H54    11.7910   -1.9230  -11.2171 H        1 ZINC000003812888    0.1400
55     H55    13.4159   -0.6213  -11.4464 H        1 ZINC000003812888    0.0600
56     H56    14.9756   -1.1571  -12.1163 H        1 ZINC000003812888    0.1100
57     H57    13.5063   -2.1203  -12.4019 H        1 ZINC000003812888    0.0600
58     H58    15.7905   -4.5568   -6.7023 H        1 ZINC000003812888    0.1100
59     H59    14.2097   -3.9339   -6.1717 H        1 ZINC000003812888    0.0500
60     H60    14.3005   -5.4332   -7.1268 H        1 ZINC000003812888    0.0500
61     H61    12.4142   -4.5193   -7.0715 H        1 ZINC000003812888    0.1300
62     H62     7.6627   -4.1679   -7.8882 H        1 ZINC000003812888    0.0800
63     H63     9.4978   -1.9057   -8.7229 H        1 ZINC000003812888    0.0900
64     H64     7.8159   -1.9685   -9.3023 H        1 ZINC000003812888    0.0700
65     H65     8.1533   -1.8829   -7.5567 H        1 ZINC000003812888    0.0600
66     H66     8.1759   -5.4241   -9.8245 H        1 ZINC000003812888    0.0600
67     H67     7.8101   -3.8073  -10.4728 H        1 ZINC000003812888    0.0700
68     H68     9.5013   -4.3324  -10.2932 H        1 ZINC000003812888    0.0800
69     H69     7.0398   -5.1403    0.9546 H        1 ZINC000003812888    0.1400
70     H70     8.0492   -5.9425    4.0969 H        1 ZINC000003812888    0.1100
71     H71     6.9183   -6.2151    2.7496 H        1 ZINC000003812888    0.0600
72     H72     8.4752   -5.4042    2.4546 H        1 ZINC000003812888    0.0500
@<TRIPOS>BOND
1     1     2     1
2     1     35    1
3     1     36    1
4     1     37    1
5     2     3     1
6     3     32    ar
7     3     4     ar
8     4     5     ar
9     4     38    1
10    5     6     ar
11    5     39    1
12    6     7     1
13    6     31    ar
14    7     8     1
15    7     40    1
16    7     41    1
17    8     9     1
18    8     42    1
19    8     43    1
20    9     10    1
21    9     11    1
22    9     12    1
23    11    44    1
24    11    45    1
25    11    46    1
26    12    13    1
27    12    47    1
28    12    48    1
29    13    14    1
30    13    49    1
31    13    50    1
32    14    15    1
33    14    51    1
34    14    52    1
35    15    16    1
36    15    18    1
37    15    28    1
38    16    17    3
39    18    27    ar
40    18    19    ar
41    19    20    ar
42    19    53    1
43    20    21    ar
44    20    54    1
45    21    22    1
46    21    24    ar
47    22    23    1
48    23    55    1
49    23    56    1
50    23    57    1
51    24    25    1
52    24    27    ar
53    25    26    1
54    26    58    1
55    26    59    1
56    26    60    1
57    27    61    1
58    28    29    1
59    28    30    1
60    28    62    1
61    29    63    1
62    29    64    1
63    29    65    1
64    30    66    1
65    30    67    1
66    30    68    1
67    31    32    ar
68    31    69    1
69    32    33    1
70    33    34    1
71    34    70    1
72    34    71    1
73    34    72    1
@<TRIPOS>SUBSTRUCTURE
1   ZINC000003812888 1     RESIDUE    1   A     ZIN   1
