@<TRIPOS>MOLECULE
ZINC000003924157
  42   44    0    0    0
SMALL
USER_CHARGES
NO_NAME
@<TRIPOS>ATOM
    1 C1       -0.0384     1.4994     0.0587 C.3    1 <0>      -0.1500
    2 C2       -0.0107    -0.0303     0.0398 C.3    1 <0>      -0.1200
    3 C3        0.7036    -0.5118    -1.2247 C.3    1 <0>      -0.1200
    4 C4        0.7312    -2.0415    -1.2436 C.3    1 <0>       0.0800
    5 O5        1.3984    -2.4912    -2.4246 O.3    1 <0>      -0.3200
    6 C6        1.5092    -3.8273    -2.5956 C.ar   1 <0>       0.3200
    7 C7        2.6114    -4.5325    -2.0958 C.ar   1 <0>      -0.3000
    8 C8        3.6729    -3.8195    -1.3710 C.2    1 <0>       0.4600
    9 O9        3.6454    -2.6054    -1.2909 O.2    1 <0>      -0.4100
   10 C10       4.7722    -4.5758    -0.7406 C.ar   1 <0>      -0.2300
   11 C11       4.6123    -5.1120     0.5421 C.ar   1 <0>       0.1700
   12 F12       3.4500    -4.9391     1.2087 F      1 <0>      -0.1200
   13 C13       5.6468    -5.8193     1.1248 C.ar   1 <0>      -0.1600
   14 C14       6.8375    -5.9979     0.4439 C.ar   1 <0>      -0.0100
   15 C15       7.9599    -6.7706     1.0875 C.3    1 <0>      -0.1200
   16 C16       7.0040    -5.4717    -0.8245 C.ar   1 <0>      -0.1600
   17 C17       5.9783    -4.7659    -1.4243 C.ar   1 <0>       0.1700
   18 F18       6.1428    -4.2531    -2.6633 F      1 <0>      -0.1200
   19 C19       2.7022    -5.9237    -2.2872 C.ar   1 <0>       0.2500
   20 N20       1.7878    -6.6043    -2.9225 N.ar   1 <0>      -0.4800
   21 C21       0.6935    -6.0132    -3.4378 C.ar   1 <0>       0.3000
   22 N22      -0.3550    -6.4507    -4.1071 N.2    1 <0>      -0.2800
   23 N23      -1.1977    -5.3721    -4.3954 N.pl3  1 <0>      -0.4100
   24 C24      -0.6775    -4.2413    -3.9039 C.2    1 <0>       0.1500
   25 C25       0.5137    -4.5616    -3.2798 C.ar   1 <0>      -0.3000
   26 H26       0.9825     1.8813     0.0503 H      1 <0>       0.0600
   27 H27      -0.5700     1.8640    -0.8202 H      1 <0>       0.0600
   28 H28      -0.5473     1.8424     0.9595 H      1 <0>       0.0600
   29 H29       0.5209    -0.3950     0.9186 H      1 <0>       0.0700
   30 H30      -1.0316    -0.4123     0.0482 H      1 <0>       0.0600
   31 H31       0.1719    -0.1471    -2.1036 H      1 <0>       0.0700
   32 H32       1.7244    -0.1299    -1.2331 H      1 <0>       0.0800
   33 H33       1.2629    -2.4062    -0.3647 H      1 <0>       0.0600
   34 H34      -0.2896    -2.4234    -1.2352 H      1 <0>       0.0600
   35 H35       5.5254    -6.2335     2.1148 H      1 <0>       0.1500
   36 H36       7.8662    -7.8265     0.8338 H      1 <0>       0.0900
   37 H37       8.9158    -6.3931     0.7245 H      1 <0>       0.0800
   38 H38       7.9094    -6.6511     2.1698 H      1 <0>       0.0800
   39 H39       7.9369    -5.6162    -1.3492 H      1 <0>       0.1500
   40 H40       3.5608    -6.4476    -1.8938 H      1 <0>       0.1700
   41 H41      -2.0355    -5.4345    -4.8804 H      1 <0>       0.4500
   42 H42      -1.1122    -3.2555    -3.9783 H      1 <0>       0.2000
@<TRIPOS>BOND
   1    1    2 1
   2    1   26 1
   3    1   27 1
   4    1   28 1
   5    2    3 1
   6    2   29 1
   7    2   30 1
   8    3    4 1
   9    3   31 1
  10    3   32 1
  11    4    5 1
  12    4   33 1
  13    4   34 1
  14    5    6 1
  15    6   25 ar
  16    6    7 ar
  17    7    8 1
  18    7   19 ar
  19    8    9 2
  20    8   10 1
  21   10   17 ar
  22   10   11 ar
  23   11   12 1
  24   11   13 ar
  25   13   14 ar
  26   13   35 1
  27   14   15 1
  28   14   16 ar
  29   15   36 1
  30   15   37 1
  31   15   38 1
  32   16   17 ar
  33   16   39 1
  34   17   18 1
  35   19   20 ar
  36   19   40 1
  37   20   21 ar
  38   21   25 ar
  39   21   22 2
  40   22   23 1
  41   23   24 1
  42   23   41 1
  43   24   25 2
  44   24   42 1
