@<TRIPOS>MOLECULE
ZINC000018107770
  26   28    0    0    0
SMALL
USER_CHARGES
NO_NAME
@<TRIPOS>ATOM
    1 C1        3.0444    -0.4438     3.1955 C.2    1 <0>       0.3100
    2 N2        3.4915     0.4725     2.3827 N.2    1 <0>      -0.4900
    3 C3        3.1652     0.1561     1.1154 C.ar   1 <0>       0.3000
    4 N4        3.3684     0.7286    -0.0753 N.ar   1 <0>      -0.4800
    5 C5        2.9159     0.1657    -1.1738 C.ar   1 <0>       0.3100
    6 N6        2.2486    -0.9738    -1.1648 N.ar   1 <0>      -0.5200
    7 C7        1.9991    -1.6154    -0.0261 C.ar   1 <0>       0.4600
    8 N8        1.2986    -2.8108    -0.0254 N.pl3  1 <0>      -0.6700
    9 C9       -0.1681    -2.8293     0.0927 C.3    1 <0>       0.1100
   10 C10      -0.7326    -3.7059    -1.0311 C.3    1 <0>       0.0500
   11 O11      -0.0780    -4.9767    -1.0107 O.3    1 <0>      -0.3800
   12 C12       1.3291    -4.9142    -1.2555 C.3    1 <0>       0.0500
   13 C13       1.9988    -4.0992    -0.1489 C.3    1 <0>       0.1100
   14 C14       2.4594    -1.0573     1.1678 C.ar   1 <0>      -0.0700
   15 N15       2.4013    -1.4086     2.4999 N.pl3  1 <0>      -0.5700
   16 H16       3.1729    -0.4357     4.2678 H      1 <0>       0.2300
   17 H17       3.0966     0.6541    -2.1200 H      1 <0>       0.2100
   18 H18      -0.4533    -3.2433     1.0598 H      1 <0>       0.0700
   19 H19      -0.5568    -1.8154    -0.0022 H      1 <0>       0.0800
   20 H20      -1.8032    -3.8454    -0.8811 H      1 <0>       0.1000
   21 H21      -0.5589    -3.2223    -1.9923 H      1 <0>       0.0600
   22 H22       1.7418    -5.9230    -1.2670 H      1 <0>       0.1000
   23 H23       1.5103    -4.4350    -2.2176 H      1 <0>       0.0600
   24 H24       3.0451    -3.9274    -0.4015 H      1 <0>       0.0800
   25 H25       1.9325    -4.6388     0.7958 H      1 <0>       0.0700
   26 H26       1.9781    -2.1995     2.8689 H      1 <0>       0.4300
@<TRIPOS>BOND
   1    1   15 1
   2    1    2 2
   3    1   16 1
   4    2    3 1
   5    3   14 ar
   6    3    4 ar
   7    4    5 ar
   8    5    6 ar
   9    5   17 1
  10    6    7 ar
  11    7    8 1
  12    7   14 ar
  13    8   13 1
  14    8    9 1
  15    9   10 1
  16    9   18 1
  17    9   19 1
  18   10   11 1
  19   10   20 1
  20   10   21 1
  21   11   12 1
  22   12   13 1
  23   12   22 1
  24   12   23 1
  25   13   24 1
  26   13   25 1
  27   14   15 1
  28   15   26 1
