@<TRIPOS>MOLECULE
ZINC000013829449
  40   43    0    0    0
SMALL
USER_CHARGES
NO_NAME
@<TRIPOS>ATOM
    1 O1        0.0021    -0.0041     0.0020 O.co2  1 <0>      -0.6600
    2 C2       -0.0145     1.2150     0.0087 C.2    1 <0>       0.4900
    3 O3        1.0330     1.8389     0.0021 O.co2  1 <0>      -0.6900
    4 C4       -1.3296     1.9507     0.0190 C.3    1 <0>       0.0700
    5 H5       -1.2147     2.9076    -0.4902 H      1 <0>       0.0900
    6 C6       -1.7679     2.1918     1.4649 C.3    1 <0>      -0.0500
    7 C7       -3.0182     3.0331     1.4772 C.2    1 <0>      -0.1500
    8 C8       -3.0812     4.3678     1.6051 C.2    1 <0>       0.0500
    9 N9       -4.3860     4.7786     1.5719 N.pl3  1 <0>      -0.6000
   10 C10      -5.2156     3.6905     1.4179 C.ar   1 <0>       0.1000
   11 C11      -6.5956     3.5439     1.3260 C.ar   1 <0>      -0.1400
   12 C12      -7.1416     2.2882     1.1718 C.ar   1 <0>      -0.1000
   13 C13      -6.3280     1.1656     1.1072 C.ar   1 <0>      -0.1500
   14 C14      -4.9696     1.2867     1.1954 C.ar   1 <0>      -0.0700
   15 C15      -4.3948     2.5500     1.3455 C.ar   1 <0>      -0.1000
   16 N16      -2.3431     1.1489    -0.6712 N.am   1 <0>      -0.5300
   17 C17      -2.7141    -0.0854    -0.2757 C.2    1 <0>       0.5800
   18 O18      -2.2946    -0.6720     0.7029 O.2    1 <0>      -0.4400
   19 C19      -3.7042    -0.6010    -1.2188 C.2    1 <0>      -0.1700
   20 C20      -4.3124    -1.7787    -1.3769 C.2    1 <0>      -0.0500
   21 C21      -5.2020    -1.9570    -2.5851 C.3    1 <0>      -0.0900
   22 C22      -5.9261    -0.6778    -2.9715 C.3    1 <0>      -0.0900
   23 C23      -5.0097     0.5233    -2.9972 C.2    1 <0>      -0.0500
   24 C24      -3.9957     0.5537    -2.1312 C.2    1 <0>      -0.1700
   25 C25      -3.0080     1.5691    -1.7661 C.2    1 <0>       0.5700
   26 O26      -2.8170     2.6162    -2.3532 O.2    1 <0>      -0.5000
   27 H27      -1.9686     1.2356     1.9480 H      1 <0>       0.0900
   28 H28      -0.9751     2.7114     2.0030 H      1 <0>       0.0900
   29 H29      -2.2284     5.0208     1.7179 H      1 <0>       0.1700
   30 H30      -4.6824     5.6993     1.6459 H      1 <0>       0.4100
   31 H31      -7.2372     4.4112     1.3755 H      1 <0>       0.1100
   32 H32      -8.2134     2.1763     1.1010 H      1 <0>       0.1200
   33 H33      -6.7720     0.1885     0.9866 H      1 <0>       0.1200
   34 H34      -4.3428     0.4087     1.1443 H      1 <0>       0.1200
   35 H35      -4.1729    -2.5783    -0.6645 H      1 <0>       0.1400
   36 H36      -4.5915    -2.2842    -3.4268 H      1 <0>       0.0900
   37 H37      -5.9409    -2.7282    -2.3677 H      1 <0>       0.0900
   38 H38      -6.3656    -0.8069    -3.9606 H      1 <0>       0.0900
   39 H39      -6.7260    -0.4954    -2.2539 H      1 <0>       0.0900
   40 H40      -5.1707     1.3318    -3.6949 H      1 <0>       0.1400
@<TRIPOS>BOND
   1    1    2 ar
   2    2    3 ar
   3    2    4 1
   4    4    5 1
   5    4    6 1
   6    4   16 1
   7    6    7 1
   8    6   27 1
   9    6   28 1
  10    7   15 1
  11    7    8 2
  12    8    9 1
  13    8   29 1
  14    9   10 1
  15    9   30 1
  16   10   15 ar
  17   10   11 ar
  18   11   12 ar
  19   11   31 1
  20   12   13 ar
  21   12   32 1
  22   13   14 ar
  23   13   33 1
  24   14   15 ar
  25   14   34 1
  26   16   25 am
  27   16   17 am
  28   17   18 2
  29   17   19 1
  30   19   24 1
  31   19   20 2
  32   20   21 1
  33   20   35 1
  34   21   22 1
  35   21   36 1
  36   21   37 1
  37   22   23 1
  38   22   38 1
  39   22   39 1
  40   23   24 2
  41   23   40 1
  42   24   25 1
  43   25   26 2
