@<TRIPOS>MOLECULE
ZINC000045355644
60    64    1     0     0
SMALL
USER_CHARGES
@<TRIPOS>ATOM
1      O1     -0.2038    0.5074   -1.3740 O.2      1 ZINC000045355644   -0.5500
2      C2     -0.1609    1.5155   -0.6957 C.2      1 ZINC000045355644    0.7100
3      N3      0.9634    2.2580   -0.6624 N.am     1 ZINC000045355644   -0.6800
4      C4      2.1090    1.8194   -1.3272 C.ar     1 ZINC000045355644    0.2000
5      C5      2.0143    1.1169   -2.5276 C.ar     1 ZINC000045355644   -0.1700
6      C6      3.1709    0.7006   -3.1536 C.ar     1 ZINC000045355644    0.1200
7      N7      4.3543    0.9593   -2.6300 N.ar     1 ZINC000045355644   -0.5000
8      C8      4.4854    1.6213   -1.4958 C.ar     1 ZINC000045355644    0.1200
9      C9      3.3781    2.0773   -0.8112 C.ar     1 ZINC000045355644   -0.2000
10     N10    -1.2395    1.8935    0.0186 N.am     1 ZINC000045355644   -0.6800
11     C11    -2.3683    1.0730    0.0656 C.ar     1 ZINC000045355644    0.1900
12     C12    -2.2233   -0.3095    0.0312 C.ar     1 ZINC000045355644   -0.1300
13     C13    -3.3355   -1.1213    0.0775 C.ar     1 ZINC000045355644   -0.0400
14     C14    -4.6080   -0.5551    0.1590 C.ar     1 ZINC000045355644   -0.0800
15     C15    -5.8055   -1.4256    0.2094 C.ar     1 ZINC000045355644    0.4600
16     N16    -5.6681   -2.7487    0.1826 N.ar     1 ZINC000045355644   -0.6000
17     C17    -6.7431   -3.5293    0.2283 C.ar     1 ZINC000045355644    0.5600
18     N18    -6.6008   -4.9019    0.2004 N.3      1 ZINC000045355644   -0.4500
19     C19    -7.2408   -5.5218    1.3698 C.3      1 ZINC000045355644    0.0300
20     C20    -7.1115   -7.0439    1.2685 C.3      1 ZINC000045355644    0.0600
21     O21    -5.7291   -7.3936    1.1590 O.3      1 ZINC000045355644   -0.3800
22     C22    -5.0746   -6.8076    0.0305 C.3      1 ZINC000045355644    0.0600
23     C23    -5.1833   -5.2830    0.1192 C.3      1 ZINC000045355644    0.0300
24     N24    -7.9551   -2.9883    0.3013 N.ar     1 ZINC000045355644   -0.5800
25     C25    -8.0930   -1.6665    0.3282 C.ar     1 ZINC000045355644    0.5600
26     N26    -9.3519   -1.1057    0.4045 N.3      1 ZINC000045355644   -0.4500
27     C27   -10.2031   -1.5693   -0.7008 C.3      1 ZINC000045355644    0.0300
28     C28   -11.6039   -0.9716   -0.5444 C.3      1 ZINC000045355644    0.0600
29     O29   -11.5057    0.4544   -0.4981 O.3      1 ZINC000045355644   -0.3800
30     C30   -10.6845    0.9407    0.5670 C.3      1 ZINC000045355644    0.0600
31     C31    -9.2744    0.3623    0.4219 C.3      1 ZINC000045355644    0.0300
32     N32    -7.0187   -0.8848    0.2872 N.ar     1 ZINC000045355644   -0.6000
33     C33    -4.7508    0.8323    0.1934 C.ar     1 ZINC000045355644   -0.0400
34     C34    -3.6351    1.6397    0.1526 C.ar     1 ZINC000045355644   -0.1600
35     H35     0.9762    3.0973   -0.1762 H        1 ZINC000045355644    0.4100
36     H36     1.0490    0.9013   -2.9611 H        1 ZINC000045355644    0.1500
37     H37     3.1071    0.1558   -4.0839 H        1 ZINC000045355644    0.1600
38     H38     5.4723    1.8120   -1.1009 H        1 ZINC000045355644    0.1600
39     H39     3.4924    2.6187    0.1163 H        1 ZINC000045355644    0.1400
40     H40    -1.2316    2.7356    0.5000 H        1 ZINC000045355644    0.4100
41     H41    -1.2380   -0.7472   -0.0323 H        1 ZINC000045355644    0.1400
42     H42    -3.2224   -2.1950    0.0504 H        1 ZINC000045355644    0.1400
43     H43    -6.7509   -5.1746    2.2795 H        1 ZINC000045355644    0.0600
44     H44    -8.2953   -5.2470    1.3959 H        1 ZINC000045355644    0.1100
45     H45    -7.5340   -7.5053    2.1611 H        1 ZINC000045355644    0.1100
46     H46    -7.6471   -7.3969    0.3872 H        1 ZINC000045355644    0.0700
47     H47    -4.0240   -7.0980    0.0277 H        1 ZINC000045355644    0.1100
48     H48    -5.5510   -7.1536   -0.8868 H        1 ZINC000045355644    0.0600
49     H49    -4.7358   -4.8340   -0.7675 H        1 ZINC000045355644    0.1000
50     H50    -4.6605   -4.9321    1.0090 H        1 ZINC000045355644    0.0700
51     H51    -9.7742   -1.2481   -1.6500 H        1 ZINC000045355644    0.0600
52     H52   -10.2671   -2.6572   -0.6793 H        1 ZINC000045355644    0.1100
53     H53   -12.2222   -1.2665   -1.3923 H        1 ZINC000045355644    0.1100
54     H54   -12.0539   -1.3356    0.3792 H        1 ZINC000045355644    0.0700
55     H55   -10.6379    2.0288    0.5230 H        1 ZINC000045355644    0.1100
56     H56   -11.1078    0.6322    1.5229 H        1 ZINC000045355644    0.0600
57     H57    -8.6605    0.6845    1.2630 H        1 ZINC000045355644    0.1000
58     H58    -8.8307    0.7145   -0.5093 H        1 ZINC000045355644    0.0700
59     H59    -5.7348    1.2730    0.2561 H        1 ZINC000045355644    0.1400
60     H60    -3.7450    2.7137    0.1792 H        1 ZINC000045355644    0.1400
@<TRIPOS>BOND
1     1     2     2
2     2     3     am
3     2     10    am
4     3     4     1
5     3     35    1
6     4     9     ar
7     4     5     ar
8     5     6     ar
9     5     36    1
10    6     7     ar
11    6     37    1
12    7     8     ar
13    8     9     ar
14    8     38    1
15    9     39    1
16    10    11    1
17    10    40    1
18    11    34    ar
19    11    12    ar
20    12    13    ar
21    12    41    1
22    13    14    ar
23    13    42    1
24    14    15    1
25    14    33    ar
26    15    32    ar
27    15    16    ar
28    16    17    ar
29    17    18    1
30    17    24    ar
31    18    23    1
32    18    19    1
33    19    20    1
34    19    43    1
35    19    44    1
36    20    21    1
37    20    45    1
38    20    46    1
39    21    22    1
40    22    23    1
41    22    47    1
42    22    48    1
43    23    49    1
44    23    50    1
45    24    25    ar
46    25    26    1
47    25    32    ar
48    26    31    1
49    26    27    1
50    27    28    1
51    27    51    1
52    27    52    1
53    28    29    1
54    28    53    1
55    28    54    1
56    29    30    1
57    30    31    1
58    30    55    1
59    30    56    1
60    31    57    1
61    31    58    1
62    33    34    ar
63    33    59    1
64    34    60    1
@<TRIPOS>SUBSTRUCTURE
1   ZINC000045355644 1     RESIDUE    1   A     ZIN   1
