@<TRIPOS>MOLECULE
ZINC000000086535
  29   30    0    0    0
SMALL
USER_CHARGES
NO_NAME
@<TRIPOS>ATOM
    1 O1       -2.5559     3.9198    -3.2518 O.co2  1 <0>      -0.6900
    2 C2       -1.7560     3.8609    -2.3277 C.2    1 <0>       0.5200
    3 O3       -0.6370     4.3390    -2.4558 O.co2  1 <0>      -0.6700
    4 C4       -2.1415     3.2209    -1.0612 C.ar   1 <0>      -0.1300
    5 C5       -3.3761     2.5734    -0.9467 C.ar   1 <0>      -0.0800
    6 C6       -3.7306     1.9762     0.2425 C.ar   1 <0>      -0.1400
    7 C7       -2.8704     2.0125     1.3291 C.ar   1 <0>      -0.1200
    8 C8       -1.6490     2.6469     1.2334 C.ar   1 <0>      -0.1400
    9 C9       -1.2695     3.2507     0.0409 C.ar   1 <0>       0.1600
   10 N10      -0.0412     3.8891    -0.0581 N.pl3  1 <0>      -0.6600
   11 C11       0.0371     5.2779     0.0746 C.ar   1 <0>       0.2700
   12 C12      -1.1046     6.0152     0.3613 C.ar   1 <0>      -0.1600
   13 C13      -1.0235     7.3878     0.4923 C.ar   1 <0>      -0.0800
   14 C14       0.1922     8.0280     0.3379 C.ar   1 <0>      -0.1500
   15 C15       1.3310     7.2969     0.0519 C.ar   1 <0>      -0.1400
   16 C16       2.6539     7.9990    -0.1155 C.3    1 <0>       0.5100
   17 F17       2.4772     9.3753     0.0630 F      1 <0>      -0.1800
   18 F18       3.5607     7.5181     0.8351 F      1 <0>      -0.1800
   19 F19       3.1518     7.7555    -1.4000 F      1 <0>      -0.1800
   20 C20       1.2582     5.9238    -0.0743 C.ar   1 <0>      -0.1400
   21 H21      -4.0506     2.5421    -1.7896 H      1 <0>       0.1300
   22 H22      -4.6844     1.4770     0.3292 H      1 <0>       0.1200
   23 H23      -3.1586     1.5412     2.2571 H      1 <0>       0.1200
   24 H24      -0.9853     2.6706     2.0851 H      1 <0>       0.1200
   25 H25       0.7630     3.3712    -0.2195 H      1 <0>       0.4000
   26 H26      -2.0547     5.5158     0.4813 H      1 <0>       0.1200
   27 H27      -1.9109     7.9617     0.7152 H      1 <0>       0.1300
   28 H28       0.2528     9.1014     0.4404 H      1 <0>       0.1300
   29 H29       2.1478     5.3535    -0.2976 H      1 <0>       0.1300
@<TRIPOS>BOND
   1    1    2 ar
   2    2    3 ar
   3    2    4 1
   4    4    9 ar
   5    4    5 ar
   6    5    6 ar
   7    5   21 1
   8    6    7 ar
   9    6   22 1
  10    7    8 ar
  11    7   23 1
  12    8    9 ar
  13    8   24 1
  14    9   10 1
  15   10   11 1
  16   10   25 1
  17   11   20 ar
  18   11   12 ar
  19   12   13 ar
  20   12   26 1
  21   13   14 ar
  22   13   27 1
  23   14   15 ar
  24   14   28 1
  25   15   16 1
  26   15   20 ar
  27   16   17 1
  28   16   18 1
  29   16   19 1
  30   20   29 1
