@<TRIPOS>MOLECULE
ZINC000000824048
  51   55    0    0    0
SMALL
USER_CHARGES
NO_NAME
@<TRIPOS>ATOM
    1 C1       -0.0173     1.4248     0.0099 C.3    1 <0>       0.0300
    2 O2        0.0021    -0.0041     0.0020 O.3    1 <0>      -0.3100
    3 C3        0.6258    -0.6184     1.0415 C.ar   1 <0>       0.1600
    4 C4        1.2022     0.1383     2.0511 C.ar   1 <0>      -0.2100
    5 C5        1.8353    -0.4886     3.1071 C.ar   1 <0>      -0.0800
    6 C6        1.8951    -1.8689     3.1577 C.ar   1 <0>      -0.1600
    7 C7        1.3217    -2.6255     2.1522 C.ar   1 <0>      -0.0800
    8 C8        0.6822    -2.0036     1.0976 C.ar   1 <0>      -0.1200
    9 C9        0.0571    -2.8288     0.0024 C.3    1 <0>      -0.0600
   10 C10       1.0454    -2.9701    -1.1570 C.3    1 <0>       0.0000
   11 H11       1.9845    -3.3804    -0.7859 H      1 <0>       0.1100
   12 C12       0.4608    -3.9093    -2.2139 C.3    1 <0>      -0.0400
   13 C13       1.4825    -4.1458    -3.2961 C.2    1 <0>       0.2700
   14 N14       2.0784    -3.2099    -3.9758 N.2    1 <0>      -0.4700
   15 C15       2.9363    -3.7691    -4.8675 C.ar   1 <0>       0.0500
   16 C16       3.8088    -3.2447    -5.8242 C.ar   1 <0>      -0.0600
   17 C17       4.5630    -4.0865    -6.5921 C.ar   1 <0>      -0.1300
   18 C18       4.4724    -5.4617    -6.4327 C.ar   1 <0>      -0.1000
   19 C19       3.6177    -6.0017    -5.4950 C.ar   1 <0>      -0.1100
   20 C20       2.8442    -5.1622    -4.7056 C.ar   1 <0>       0.0500
   21 N21       1.9204    -5.3686    -3.7006 N.pl3  1 <0>      -0.6000
   22 C22       1.2962    -1.6169    -1.7711 C.2    1 <0>       0.3400
   23 N23       2.2907    -0.8342    -1.4692 N.2    1 <0>      -0.4900
   24 C24       2.2165     0.3035    -2.2067 C.ar   1 <0>       0.0600
   25 C25       3.0046     1.4543    -2.2847 C.ar   1 <0>      -0.0700
   26 C26       2.6626     2.4565    -3.1483 C.ar   1 <0>      -0.1300
   27 C27       1.5375     2.3446    -3.9522 C.ar   1 <0>      -0.1100
   28 C28       0.7446     1.2181    -3.8918 C.ar   1 <0>      -0.1100
   29 C29       1.0766     0.1897    -3.0209 C.ar   1 <0>       0.0600
   30 N30       0.5189    -1.0384    -2.7260 N.pl3  1 <0>      -0.5800
   31 H31       1.0053     1.8021     0.0021 H      1 <0>       0.0600
   32 H32      -0.5445     1.7859    -0.8732 H      1 <0>       0.0900
   33 H33      -0.5275     1.7763     0.9067 H      1 <0>       0.0500
   34 H34       1.1563     1.2166     2.0116 H      1 <0>       0.1200
   35 H35       2.2842     0.1001     3.8934 H      1 <0>       0.1200
   36 H36       2.3907    -2.3570     3.9838 H      1 <0>       0.1200
   37 H37       1.3700    -3.7036     2.1938 H      1 <0>       0.1300
   38 H38      -0.1927    -3.8167     0.3893 H      1 <0>       0.0900
   39 H39      -0.8493    -2.3370    -0.3507 H      1 <0>       0.0800
   40 H40       0.1969    -4.8595    -1.7495 H      1 <0>       0.1000
   41 H41      -0.4308    -3.4572    -2.6485 H      1 <0>       0.1000
   42 H42       3.8869    -2.1757    -5.9569 H      1 <0>       0.1300
   43 H43       5.2361    -3.6772    -7.3309 H      1 <0>       0.1300
   44 H44       5.0752    -6.1137    -7.0474 H      1 <0>       0.1300
   45 H45       3.5505    -7.0730    -5.3754 H      1 <0>       0.1200
   46 H46       1.6356    -6.2265    -3.3488 H      1 <0>       0.4200
   47 H47       3.8824     1.5520    -1.6631 H      1 <0>       0.1200
   48 H48       3.2742     3.3448    -3.2054 H      1 <0>       0.1200
   49 H49       1.2806     3.1455    -4.6297 H      1 <0>       0.1200
   50 H50      -0.1306     1.1363    -4.5193 H      1 <0>       0.1200
   51 H51      -0.2796    -1.4179    -3.1250 H      1 <0>       0.4100
@<TRIPOS>BOND
   1    1    2 1
   2    1   31 1
   3    1   32 1
   4    1   33 1
   5    2    3 1
   6    3    8 ar
   7    3    4 ar
   8    4    5 ar
   9    4   34 1
  10    5    6 ar
  11    5   35 1
  12    6    7 ar
  13    6   36 1
  14    7    8 ar
  15    7   37 1
  16    8    9 1
  17    9   10 1
  18    9   38 1
  19    9   39 1
  20   10   11 1
  21   10   12 1
  22   10   22 1
  23   12   13 1
  24   12   40 1
  25   12   41 1
  26   13   21 1
  27   13   14 2
  28   14   15 1
  29   15   20 ar
  30   15   16 ar
  31   16   17 ar
  32   16   42 1
  33   17   18 ar
  34   17   43 1
  35   18   19 ar
  36   18   44 1
  37   19   20 ar
  38   19   45 1
  39   20   21 1
  40   21   46 1
  41   22   30 1
  42   22   23 2
  43   23   24 1
  44   24   29 ar
  45   24   25 ar
  46   25   26 ar
  47   25   47 1
  48   26   27 ar
  49   26   48 1
  50   27   28 ar
  51   27   49 1
  52   28   29 ar
  53   28   50 1
  54   29   30 1
  55   30   51 1
