@<TRIPOS>MOLECULE
ZINC000000968276
57    60    1     0     0
SMALL
USER_CHARGES
@<TRIPOS>ATOM
1      C1     -0.0184    1.5028    0.0103 C.3      1 ZINC000000968276   -0.1100
2      C2      0.0021   -0.0041    0.0020 C.ar     1 ZINC000000968276   -0.0800
3      C3      0.0057   -0.6883   -1.1958 C.ar     1 ZINC000000968276   -0.1000
4      C4     -0.0085    0.0744   -2.4954 C.3      1 ZINC000000968276   -0.1100
5      C5      0.0229   -2.0794   -1.2093 C.ar     1 ZINC000000968276    0.1400
6      C6      0.0358   -2.7783   -0.0153 C.ar     1 ZINC000000968276   -0.1500
7      C7      0.0480   -4.2857    0.0127 C.3      1 ZINC000000968276   -0.0700
8      C8      0.4841   -4.8237   -1.3523 C.3      1 ZINC000000968276   -0.1500
9      C9     -0.3235   -4.0984   -2.4364 C.3      1 ZINC000000968276    0.1200
10     C10    -1.8194   -4.2530   -2.1549 C.3      1 ZINC000000968276   -0.1700
11     C11     0.0067   -4.6907   -3.8079 C.3      1 ZINC000000968276    0.0800
12     O12    -0.7478   -4.0119   -4.8140 O.3      1 ZINC000000968276   -0.3100
13     C13    -0.5703   -4.4194   -6.0983 C.ar     1 ZINC000000968276    0.1200
14     C14     0.3075   -5.4551   -6.3837 C.ar     1 ZINC000000968276   -0.2100
15     C15     0.4858   -5.8677   -7.6899 C.ar     1 ZINC000000968276   -0.0500
16     C16    -0.2095   -5.2492   -8.7126 C.ar     1 ZINC000000968276   -0.1100
17     C17    -0.0127   -5.7010  -10.1367 C.3      1 ZINC000000968276   -0.0400
18     C18    -1.0191   -6.8057  -10.4649 C.3      1 ZINC000000968276   -0.0900
19     H19    -2.0356   -6.4749  -10.2519 H        1 ZINC000000968276    0.1100
20     S20    -0.6292   -8.3294   -9.5398 S.3      1 ZINC000000968276   -0.4000
21     C21    -0.3532   -9.3011  -10.9966 C.2      1 ZINC000000968276    0.5800
22     O22    -0.0425  -10.4761  -11.0271 O.2      1 ZINC000000968276   -0.5100
23     N23    -0.5478   -8.5103  -12.0541 N.pl3    1 ZINC000000968276   -0.7200
24     C24    -0.8883   -7.2367  -11.9094 C.2      1 ZINC000000968276    0.5200
25     O25    -1.0733   -6.4902  -12.8466 O.2      1 ZINC000000968276   -0.5400
26     C26    -1.0853   -4.2171   -8.4307 C.ar     1 ZINC000000968276   -0.0800
27     C27    -1.2710   -3.8042   -7.1255 C.ar     1 ZINC000000968276   -0.1500
28     O28     0.0304   -2.7149   -2.4111 O.3      1 ZINC000000968276   -0.2900
29     C29     0.0345   -2.0904    1.1868 C.ar     1 ZINC000000968276   -0.0800
30     C30     0.0518   -2.8519    2.4871 C.3      1 ZINC000000968276   -0.1100
31     C31     0.0230   -0.7051    1.1989 C.ar     1 ZINC000000968276    0.0700
32     O32     0.0215   -0.0341    2.3816 O.3      1 ZINC000000968276   -0.4900
33     H33     1.0042    1.8801    0.0026 H        1 ZINC000000968276    0.0700
34     H34    -0.5455    1.8639   -0.8728 H        1 ZINC000000968276    0.0700
35     H35    -0.5286    1.8543    0.9071 H        1 ZINC000000968276    0.0700
36     H36     1.0157    0.2707   -2.8127 H        1 ZINC000000968276    0.0700
37     H37    -0.5181   -0.5154   -3.2573 H        1 ZINC000000968276    0.0700
38     H38    -0.5332    1.0196   -2.3563 H        1 ZINC000000968276    0.0700
39     H39     0.7452   -4.6286    0.7772 H        1 ZINC000000968276    0.0800
40     H40    -0.9521   -4.6522    0.2443 H        1 ZINC000000968276    0.0800
41     H41     1.5476   -4.6353   -1.4987 H        1 ZINC000000968276    0.0800
42     H42     0.2896   -5.8949   -1.4043 H        1 ZINC000000968276    0.0900
43     H43    -2.0524   -3.8217   -1.1813 H        1 ZINC000000968276    0.0700
44     H44    -2.3897   -3.7366   -2.9270 H        1 ZINC000000968276    0.0800
45     H45    -2.0818   -5.3110   -2.1558 H        1 ZINC000000968276    0.0700
46     H46     1.0712   -4.5703   -4.0090 H        1 ZINC000000968276    0.0700
47     H47    -0.2471   -5.7507   -3.8166 H        1 ZINC000000968276    0.0800
48     H48     0.8513   -5.9381   -5.5853 H        1 ZINC000000968276    0.1200
49     H49     1.1691   -6.6739   -7.9126 H        1 ZINC000000968276    0.1300
50     H50    -0.1664   -4.8577  -10.8100 H        1 ZINC000000968276    0.0900
51     H51     1.0003   -6.0841  -10.2597 H        1 ZINC000000968276    0.0800
52     H52    -1.6274   -3.7357   -9.2312 H        1 ZINC000000968276    0.1300
53     H53    -1.9552   -2.9980   -6.9059 H        1 ZINC000000968276    0.1300
54     H54     1.0835   -3.0228    2.7944 H        1 ZINC000000968276    0.0700
55     H55    -0.4646   -2.2740    3.2535 H        1 ZINC000000968276    0.0700
56     H56    -0.4510   -3.8098    2.3539 H        1 ZINC000000968276    0.0700
57     H57     0.9044    0.1674    2.7206 H        1 ZINC000000968276    0.3800
@<TRIPOS>BOND
1     1     2     1
2     1     33    1
3     1     34    1
4     1     35    1
5     2     31    ar
6     2     3     ar
7     3     4     1
8     3     5     ar
9     4     36    1
10    4     37    1
11    4     38    1
12    5     28    1
13    5     6     ar
14    6     7     1
15    6     29    ar
16    7     8     1
17    7     39    1
18    7     40    1
19    8     9     1
20    8     41    1
21    8     42    1
22    9     10    1
23    9     11    1
24    9     28    1
25    10    43    1
26    10    44    1
27    10    45    1
28    11    12    1
29    11    46    1
30    11    47    1
31    12    13    1
32    13    27    ar
33    13    14    ar
34    14    15    ar
35    14    48    1
36    15    16    ar
37    15    49    1
38    16    17    1
39    16    26    ar
40    17    18    1
41    17    50    1
42    17    51    1
43    18    19    1
44    18    24    1
45    18    20    1
46    20    21    1
47    21    22    2
48    21    23    1
49    23    24    1
50    24    25    2
51    26    27    ar
52    26    52    1
53    27    53    1
54    29    30    1
55    29    31    ar
56    30    54    1
57    30    55    1
58    30    56    1
59    31    32    1
60    32    57    1
@<TRIPOS>SUBSTRUCTURE
1   ZINC000000968276 1     RESIDUE    1   A     ZIN   1
