@<TRIPOS>MOLECULE
ZINC000002007259
40    41    1     0     0
SMALL
USER_CHARGES
@<TRIPOS>ATOM
1      N1     -0.1340    1.3274    0.2011 N.am     1 ZINC000002007259   -0.8400
2      C2     -0.1361   -0.0011   -0.0261 C.2      1 ZINC000002007259    0.5900
3      O3      0.7164   -0.4978   -0.7375 O.2      1 ZINC000002007259   -0.5500
4      C4     -1.1700   -0.8509    0.5865 C.ar     1 ZINC000002007259   -0.3500
5      C5     -2.2363   -0.2876    1.2953 C.ar     1 ZINC000002007259    0.2600
6      N6     -3.1435   -1.0840    1.8303 N.ar     1 ZINC000002007259   -0.6000
7      C7     -3.0581   -2.4028    1.7054 C.ar     1 ZINC000002007259    0.6200
8      N8     -4.0308   -3.1930    2.2818 N.pl3    1 ZINC000002007259   -0.7000
9      C9     -5.1361   -2.5743    3.0178 C.3      1 ZINC000002007259    0.1100
10     C10    -6.0670   -3.6649    3.5516 C.3      1 ZINC000002007259   -0.0200
11     N11    -7.1754   -3.0445    4.2896 N.4      1 ZINC000002007259   -0.6300
12     H12    -6.8074   -2.5090    5.0615 H        1 ZINC000002007259    0.4400
13     H13    -7.6907   -2.4347    3.6726 H        1 ZINC000002007259    0.4400
14     H14    -7.7893   -3.7637    4.6416 H        1 ZINC000002007259    0.4500
15     N15    -2.0678   -2.9836    1.0441 N.ar     1 ZINC000002007259   -0.6100
16     C16    -1.1161   -2.2572    0.4700 C.ar     1 ZINC000002007259    0.5200
17     N17    -0.0863   -2.8661   -0.2179 N.pl3    1 ZINC000002007259   -0.6200
18     C18    -0.1105   -4.2471   -0.4340 C.ar     1 ZINC000002007259    0.1500
19     C19    -1.3196   -4.8979   -0.6425 C.ar     1 ZINC000002007259   -0.0800
20     C20    -1.3399   -6.2624   -0.8556 C.ar     1 ZINC000002007259   -0.1000
21     C21    -0.1584   -6.9805   -0.8612 C.ar     1 ZINC000002007259   -0.0800
22     C22     1.0474   -6.3356   -0.6534 C.ar     1 ZINC000002007259   -0.1600
23     C23     2.3327   -7.1224   -0.6603 C.3      1 ZINC000002007259    0.5100
24     F24     2.0517   -8.4727   -0.8946 F        1 ZINC000002007259   -0.1700
25     F25     3.1704   -6.6383   -1.6709 F        1 ZINC000002007259   -0.1700
26     F26     2.9692   -6.9866    0.5780 F        1 ZINC000002007259   -0.1700
27     C27     1.0754   -4.9707   -0.4464 C.ar     1 ZINC000002007259   -0.0900
28     H28     0.5474    1.8874   -0.2026 H        1 ZINC000002007259    0.4100
29     H29    -0.8162    1.7240    0.7652 H        1 ZINC000002007259    0.4000
30     H30    -2.3162    0.7840    1.4039 H        1 ZINC000002007259    0.1800
31     H31    -3.9829   -4.1584    2.1997 H        1 ZINC000002007259    0.4200
32     H32    -4.7385   -1.9958    3.8517 H        1 ZINC000002007259    0.0900
33     H33    -5.6928   -1.9156    2.3513 H        1 ZINC000002007259    0.0900
34     H34    -6.4646   -4.2434    2.7177 H        1 ZINC000002007259    0.1400
35     H35    -5.5104   -4.3236    4.2181 H        1 ZINC000002007259    0.1400
36     H36     0.6543   -2.3359   -0.5516 H        1 ZINC000002007259    0.4400
37     H37    -2.2429   -4.3377   -0.6376 H        1 ZINC000002007259    0.1400
38     H38    -2.2798   -6.7691   -1.0178 H        1 ZINC000002007259    0.1400
39     H39    -0.1771   -8.0475   -1.0277 H        1 ZINC000002007259    0.1400
40     H40     2.0173   -4.4677   -0.2846 H        1 ZINC000002007259    0.1400
@<TRIPOS>BOND
1     1     2     am
2     1     28    1
3     1     29    1
4     2     3     2
5     2     4     1
6     4     16    ar
7     4     5     ar
8     5     6     ar
9     5     30    1
10    6     7     ar
11    7     8     1
12    7     15    ar
13    8     9     1
14    8     31    1
15    9     10    1
16    9     32    1
17    9     33    1
18    10    11    1
19    10    34    1
20    10    35    1
21    11    12    1
22    11    13    1
23    11    14    1
24    15    16    ar
25    16    17    1
26    17    18    1
27    17    36    1
28    18    27    ar
29    18    19    ar
30    19    20    ar
31    19    37    1
32    20    21    ar
33    20    38    1
34    21    22    ar
35    21    39    1
36    22    23    1
37    22    27    ar
38    23    24    1
39    23    25    1
40    23    26    1
41    27    40    1
@<TRIPOS>SUBSTRUCTURE
1   ZINC000002007259 1     RESIDUE    1   A     ZIN   1
