@<TRIPOS>MOLECULE
ZINC000041150291
  48   50    0    0    0
SMALL
USER_CHARGES
NO_NAME
@<TRIPOS>ATOM
    1 C1       -1.7290     1.1368    -1.3979 C.3    1 <0>       0.0300
    2 O2       -1.5343    -0.2772    -1.3277 O.3    1 <0>      -0.3100
    3 C3       -0.3700    -0.7658    -1.8325 C.ar   1 <0>       0.1100
    4 C4        0.5660     0.0998    -2.3779 C.ar   1 <0>      -0.1900
    5 C5        1.7513    -0.3937    -2.8918 C.ar   1 <0>      -0.1500
    6 C6        2.0067    -1.7542    -2.8630 C.ar   1 <0>       0.0600
    7 O7        3.1734    -2.2388    -3.3684 O.3    1 <0>      -0.3200
    8 C8        4.0894    -1.2869    -3.9133 C.3    1 <0>       0.0300
    9 C9        1.0682    -2.6266    -2.3156 C.ar   1 <0>       0.1800
   10 N10       1.3243    -4.0031    -2.2848 N.pl3  1 <0>      -0.6300
   11 C11       0.8526    -4.7713    -1.2348 C.ar   1 <0>       0.6100
   12 N12       1.0116    -6.0908    -1.2891 N.ar   1 <0>      -0.6200
   13 C13       0.5819    -6.8790    -0.3147 C.ar   1 <0>       0.5100
   14 N14       0.7534    -8.2450    -0.3832 N.pl3  1 <0>      -0.7000
   15 C15       1.4181    -8.8426    -1.5440 C.3    1 <0>       0.1300
   16 C16       1.4788   -10.3615    -1.3709 C.3    1 <0>      -0.1400
   17 C17       2.1730   -10.9856    -2.5832 C.3    1 <0>       0.0800
   18 O18       2.2297   -12.4043    -2.4215 O.3    1 <0>      -0.5800
   19 C19      -0.0581    -6.2820     0.8000 C.ar   1 <0>      -0.2300
   20 C20      -0.5410    -7.0402     1.8719 C.ar   1 <0>      -0.0600
   21 C21      -1.1487    -6.4124     2.9196 C.ar   1 <0>      -0.1500
   22 C22      -1.2951    -5.0284     2.9360 C.ar   1 <0>      -0.0600
   23 C23      -0.8358    -4.2612     1.9068 C.ar   1 <0>      -0.1200
   24 C24      -0.2055    -4.8735     0.8149 C.ar   1 <0>       0.2300
   25 N25       0.2689    -4.1636    -0.2193 N.ar   1 <0>      -0.5900
   26 C26      -0.1172    -2.1288    -1.7962 C.ar   1 <0>      -0.1100
   27 H27      -0.9359     1.6406    -0.8454 H      1 <0>       0.0500
   28 H28      -1.7049     1.4556    -2.4399 H      1 <0>       0.0500
   29 H29      -2.6946     1.3926    -0.9618 H      1 <0>       0.1000
   30 H30       0.3688     1.1614    -2.4018 H      1 <0>       0.1300
   31 H31       2.4783     0.2827    -3.3163 H      1 <0>       0.1300
   32 H32       3.6128    -0.7538    -4.7360 H      1 <0>       0.0500
   33 H33       4.3784    -0.5763    -3.1390 H      1 <0>       0.0500
   34 H34       4.9755    -1.8044    -4.2806 H      1 <0>       0.1000
   35 H35       1.8323    -4.4180    -2.9995 H      1 <0>       0.4300
   36 H36       0.4340    -8.8106     0.3372 H      1 <0>       0.4100
   37 H37       0.8576    -8.6019    -2.4473 H      1 <0>       0.0700
   38 H38       2.4298    -8.4456    -1.6276 H      1 <0>       0.0700
   39 H39       2.0393   -10.6022    -0.4675 H      1 <0>       0.0800
   40 H40       0.4671   -10.7585    -1.2873 H      1 <0>       0.0800
   41 H41       1.6125   -10.7450    -3.4865 H      1 <0>       0.0500
   42 H42       3.1847   -10.5887    -2.6668 H      1 <0>       0.0500
   43 H43       2.6580   -12.8669    -3.1548 H      1 <0>       0.3800
   44 H44      -0.4337    -8.1148     1.8698 H      1 <0>       0.1200
   45 H45      -1.5217    -6.9974     3.7473 H      1 <0>       0.1300
   46 H46      -1.7802    -4.5550     3.7768 H      1 <0>       0.1300
   47 H47      -0.9563    -3.1883     1.9331 H      1 <0>       0.1400
   48 H48      -0.8464    -2.8027    -1.3713 H      1 <0>       0.1500
@<TRIPOS>BOND
   1    1    2 1
   2    1   27 1
   3    1   28 1
   4    1   29 1
   5    2    3 1
   6    3   26 ar
   7    3    4 ar
   8    4    5 ar
   9    4   30 1
  10    5    6 ar
  11    5   31 1
  12    6    7 1
  13    6    9 ar
  14    7    8 1
  15    8   32 1
  16    8   33 1
  17    8   34 1
  18    9   10 1
  19    9   26 ar
  20   10   11 1
  21   10   35 1
  22   11   25 ar
  23   11   12 ar
  24   12   13 ar
  25   13   14 1
  26   13   19 ar
  27   14   15 1
  28   14   36 1
  29   15   16 1
  30   15   37 1
  31   15   38 1
  32   16   17 1
  33   16   39 1
  34   16   40 1
  35   17   18 1
  36   17   41 1
  37   17   42 1
  38   18   43 1
  39   19   24 ar
  40   19   20 ar
  41   20   21 ar
  42   20   44 1
  43   21   22 ar
  44   21   45 1
  45   22   23 ar
  46   22   46 1
  47   23   24 ar
  48   23   47 1
  49   24   25 ar
  50   26   48 1
