@<TRIPOS>MOLECULE
ZINC000013652236
67    71    1     0     0
SMALL
USER_CHARGES
@<TRIPOS>ATOM
1      O1     -0.2561    0.2395   -0.1698 O.2      1 ZINC000013652236   -0.5200
2      C2     -0.1021    1.4118    0.1003 C.2      1 ZINC000013652236    0.5300
3      C3      1.2660    2.0354   -0.0029 C.3      1 ZINC000013652236   -0.0200
4      C4      2.3144    0.9531    0.0195 C.ar     1 ZINC000013652236   -0.0700
5      C5      2.3912    0.0436   -1.0187 C.ar     1 ZINC000013652236   -0.0800
6      C6      3.3529   -0.9491   -0.9982 C.ar     1 ZINC000013652236   -0.1200
7      C7      4.2381   -1.0322    0.0603 C.ar     1 ZINC000013652236   -0.1100
8      C8      4.1619   -0.1222    1.0981 C.ar     1 ZINC000013652236   -0.1200
9      C9      3.2029    0.8732    1.0755 C.ar     1 ZINC000013652236   -0.1100
10     C10     1.3696    2.8086   -1.2923 C.ar     1 ZINC000013652236   -0.0700
11     C11     0.8906    2.2603   -2.4673 C.ar     1 ZINC000013652236   -0.1100
12     C12     0.9856    2.9695   -3.6501 C.ar     1 ZINC000013652236   -0.1100
13     C13     1.5593    4.2272   -3.6576 C.ar     1 ZINC000013652236   -0.1200
14     C14     2.0374    4.7759   -2.4824 C.ar     1 ZINC000013652236   -0.1100
15     C15     1.9385    4.0684   -1.2989 C.ar     1 ZINC000013652236   -0.1100
16     N16    -1.1554    2.1581    0.4875 N.am     1 ZINC000013652236   -0.6100
17     C17    -1.0195    3.6087    0.6888 C.3      1 ZINC000013652236    0.1100
18     C18    -2.1281    4.3154   -0.0986 C.3      1 ZINC000013652236    0.0400
19     N19    -3.4305    3.7544    0.2848 N.3      1 ZINC000013652236   -0.5200
20     C20    -4.5308    4.5189   -0.3175 C.3      1 ZINC000013652236    0.0300
21     C21    -5.8590    4.0694    0.2947 C.3      1 ZINC000013652236    0.1100
22     H22    -5.9654    2.9907    0.1799 H        1 ZINC000013652236    0.1100
23     O23    -5.8813    4.4052    1.6835 O.3      1 ZINC000013652236   -0.5400
24     C24    -7.0141    4.7746   -0.4191 C.3      1 ZINC000013652236    0.0300
25     O25    -8.2572    4.2691    0.0722 O.3      1 ZINC000013652236   -0.3000
26     C26    -9.3899    4.7937   -0.4615 C.ar     1 ZINC000013652236    0.1600
27     C27   -10.6537    4.3504   -0.0239 C.ar     1 ZINC000013652236   -0.1200
28     C28   -10.7790    3.3620    0.9681 C.ar     1 ZINC000013652236   -0.0300
29     C29   -12.0364    2.9809    1.3437 C.ar     1 ZINC000013652236   -0.1900
30     C30   -13.1482    3.5694    0.7464 C.ar     1 ZINC000013652236    0.1500
31     N31   -13.0276    4.4909   -0.1784 N.ar     1 ZINC000013652236   -0.4800
32     C32   -11.8259    4.9086   -0.5911 C.ar     1 ZINC000013652236    0.1600
33     C33   -11.7044    5.8967   -1.5825 C.ar     1 ZINC000013652236   -0.1300
34     C34   -10.4709    6.3070   -1.9877 C.ar     1 ZINC000013652236   -0.0600
35     C35    -9.3145    5.7685   -1.4318 C.ar     1 ZINC000013652236   -0.2300
36     C36    -3.5227    2.3316   -0.0686 C.3      1 ZINC000013652236    0.0400
37     C37    -2.4728    1.5446    0.7141 C.3      1 ZINC000013652236    0.1200
38     H38     1.4222    2.7100    0.8389 H        1 ZINC000013652236    0.1100
39     H39     1.6996    0.1085   -1.8457 H        1 ZINC000013652236    0.1200
40     H40     3.4124   -1.6601   -1.8090 H        1 ZINC000013652236    0.1200
41     H41     4.9890   -1.8082    0.0767 H        1 ZINC000013652236    0.1200
42     H42     4.8532   -0.1873    1.9252 H        1 ZINC000013652236    0.1200
43     H43     3.1434    1.5842    1.8862 H        1 ZINC000013652236    0.1200
44     H44     0.4424    1.2777   -2.4614 H        1 ZINC000013652236    0.1200
45     H45     0.6120    2.5409   -4.5683 H        1 ZINC000013652236    0.1200
46     H46     1.6342    4.7810   -4.5818 H        1 ZINC000013652236    0.1200
47     H47     2.4859    5.7583   -2.4883 H        1 ZINC000013652236    0.1300
48     H48     2.3121    4.4971   -0.3807 H        1 ZINC000013652236    0.1300
49     H49    -1.1176    3.8421    1.7490 H        1 ZINC000013652236    0.0800
50     H50    -0.0458    3.9390    0.3269 H        1 ZINC000013652236    0.0900
51     H51    -2.1109    5.3818    0.1264 H        1 ZINC000013652236    0.0900
52     H52    -1.9678    4.1659   -1.1663 H        1 ZINC000013652236    0.0400
53     H53    -4.3831    5.5815   -0.1249 H        1 ZINC000013652236    0.0900
54     H54    -4.5488    4.3437   -1.3932 H        1 ZINC000013652236    0.0500
55     H55    -5.7911    5.3515    1.8608 H        1 ZINC000013652236    0.3700
56     H56    -6.9576    5.8466   -0.2302 H        1 ZINC000013652236    0.0700
57     H57    -6.9453    4.5904   -1.4912 H        1 ZINC000013652236    0.0700
58     H58    -9.9056    2.9160    1.4204 H        1 ZINC000013652236    0.1400
59     H59   -12.1677    2.2239    2.1028 H        1 ZINC000013652236    0.1400
60     H60   -14.1360    3.2582    1.0527 H        1 ZINC000013652236    0.1600
61     H61   -12.5895    6.3306   -2.0236 H        1 ZINC000013652236    0.1400
62     H62   -10.3886    7.0671   -2.7504 H        1 ZINC000013652236    0.1300
63     H63    -8.3483    6.1118   -1.7708 H        1 ZINC000013652236    0.1300
64     H64    -4.5170    1.9592    0.1782 H        1 ZINC000013652236    0.0900
65     H65    -3.3430    2.2097   -1.1368 H        1 ZINC000013652236    0.0400
66     H66    -2.4603    0.5098    0.3717 H        1 ZINC000013652236    0.1000
67     H67    -2.7077    1.5783    1.7779 H        1 ZINC000013652236    0.0800
@<TRIPOS>BOND
1     1     2     2
2     2     3     1
3     2     16    am
4     3     4     1
5     3     10    1
6     3     38    1
7     4     9     ar
8     4     5     ar
9     5     6     ar
10    5     39    1
11    6     7     ar
12    6     40    1
13    7     8     ar
14    7     41    1
15    8     9     ar
16    8     42    1
17    9     43    1
18    10    15    ar
19    10    11    ar
20    11    12    ar
21    11    44    1
22    12    13    ar
23    12    45    1
24    13    14    ar
25    13    46    1
26    14    15    ar
27    14    47    1
28    15    48    1
29    16    37    1
30    16    17    1
31    17    18    1
32    17    49    1
33    17    50    1
34    18    19    1
35    18    51    1
36    18    52    1
37    19    20    1
38    19    36    1
39    20    21    1
40    20    53    1
41    20    54    1
42    21    22    1
43    21    23    1
44    21    24    1
45    23    55    1
46    24    25    1
47    24    56    1
48    24    57    1
49    25    26    1
50    26    35    ar
51    26    27    ar
52    27    32    ar
53    27    28    ar
54    28    29    ar
55    28    58    1
56    29    30    ar
57    29    59    1
58    30    31    ar
59    30    60    1
60    31    32    ar
61    32    33    ar
62    33    34    ar
63    33    61    1
64    34    35    ar
65    34    62    1
66    35    63    1
67    36    37    1
68    36    64    1
69    36    65    1
70    37    66    1
71    37    67    1
@<TRIPOS>SUBSTRUCTURE
1   ZINC000013652236 1     RESIDUE    1   A     ZIN   1
