@<TRIPOS>MOLECULE
ZINC000000039111
30    32    1     0     0
SMALL
USER_CHARGES
@<TRIPOS>ATOM
1      O1     -0.0004   -0.0017   -0.0958 O.2      1 ZINC000000039111   -0.5100
2      C2     -0.0158    1.2176   -0.0437 C.2      1 ZINC000000039111    0.4000
3      C3     -1.2838    1.9649    0.0349 C.ar     1 ZINC000000039111   -0.3500
4      C4     -2.5131    1.3051    0.0531 C.ar     1 ZINC000000039111    0.0100
5      C5     -3.6698    2.0282    0.1269 C.ar     1 ZINC000000039111   -0.2600
6      C6     -3.6282    3.4193    0.1836 C.ar     1 ZINC000000039111    0.3200
7      O7     -4.7858    4.1248    0.2562 O.3      1 ZINC000000039111   -0.6900
8      C8     -2.4158    4.0888    0.1669 C.ar     1 ZINC000000039111   -0.2900
9      C9     -1.2323    3.3686    0.0922 C.ar     1 ZINC000000039111    0.1900
10     O10    -0.0396    3.9988    0.0750 O.3      1 ZINC000000039111   -0.2100
11     C11     1.1247    3.3315    0.0038 C.2      1 ZINC000000039111    0.1200
12     C12     2.3832    4.0994   -0.0099 C.ar     1 ZINC000000039111   -0.0200
13     C13     2.5238    5.1986   -0.8611 C.ar     1 ZINC000000039111   -0.0800
14     C14     3.7015    5.9153   -0.8724 C.ar     1 ZINC000000039111   -0.1300
15     C15     4.7491    5.5480   -0.0400 C.ar     1 ZINC000000039111    0.0900
16     O16     5.9076    6.2578   -0.0551 O.3      1 ZINC000000039111   -0.4900
17     C17     4.6158    4.4527    0.8122 C.ar     1 ZINC000000039111    0.0800
18     O18     5.6446    4.0960    1.6269 O.3      1 ZINC000000039111   -0.4900
19     C19     3.4370    3.7330    0.8329 C.ar     1 ZINC000000039111   -0.0800
20     C20     1.1856    1.9705   -0.0503 C.2      1 ZINC000000039111   -0.0500
21     O21     2.3896    1.3402   -0.1213 O.3      1 ZINC000000039111   -0.4600
22     H22    -2.5500    0.2266    0.0086 H        1 ZINC000000039111    0.1200
23     H23    -4.6218    1.5184    0.1411 H        1 ZINC000000039111    0.1100
24     H24    -2.3918    5.1677    0.2111 H        1 ZINC000000039111    0.1200
25     H25     1.7101    5.4865   -1.5103 H        1 ZINC000000039111    0.1400
26     H26     3.8091    6.7645   -1.5310 H        1 ZINC000000039111    0.1400
27     H27     5.9265    6.9932    0.5725 H        1 ZINC000000039111    0.3900
28     H28     5.6256    4.5229    2.4943 H        1 ZINC000000039111    0.3900
29     H29     3.3325    2.8843    1.4926 H        1 ZINC000000039111    0.1400
30     H30     2.3273    0.3758   -0.1555 H        1 ZINC000000039111    0.4000
@<TRIPOS>BOND
1     1     2     2
2     2     20    1
3     2     3     1
4     3     9     ar
5     3     4     ar
6     4     5     ar
7     4     22    1
8     5     6     ar
9     5     23    1
10    6     7     1
11    6     8     ar
12    8     9     ar
13    8     24    1
14    9     10    1
15    10    11    1
16    11    12    1
17    11    20    2
18    12    19    ar
19    12    13    ar
20    13    14    ar
21    13    25    1
22    14    15    ar
23    14    26    1
24    15    16    1
25    15    17    ar
26    16    27    1
27    17    18    1
28    17    19    ar
29    18    28    1
30    19    29    1
31    20    21    1
32    21    30    1
@<TRIPOS>SUBSTRUCTURE
1   ZINC000000039111 1     RESIDUE    1   A     ZIN   1
