@<TRIPOS>MOLECULE
ZINC000000486827
39    40    1     0     0
SMALL
USER_CHARGES
@<TRIPOS>ATOM
1      C1     -0.0187    1.5258    0.0104 C.3      1 ZINC000000486827   -0.1500
2      C2      0.0021   -0.0041    0.0020 C.3      1 ZINC000000486827   -0.0800
3      C3      0.7309   -0.5033    1.2229 C.ar     1 ZINC000000486827   -0.1200
4      C4      2.0973   -0.7091    1.1749 C.ar     1 ZINC000000486827   -0.0800
5      C5      2.7678   -1.1667    2.2927 C.ar     1 ZINC000000486827   -0.1400
6      C6      2.0690   -1.4193    3.4643 C.ar     1 ZINC000000486827    0.1200
7      O7      2.7264   -1.8690    4.5654 O.3      1 ZINC000000486827   -0.2900
8      C8      1.9428   -2.1077    5.7363 C.3      1 ZINC000000486827    0.0400
9      C9      2.8357   -2.5985    6.8468 C.2      1 ZINC000000486827    0.5200
10     O10     4.0258   -2.7308    6.6544 O.2      1 ZINC000000486827   -0.5100
11     N11     2.3116   -2.8903    8.0537 N.am     1 ZINC000000486827   -0.6100
12     C12     0.8709   -2.7409    8.3002 C.3      1 ZINC000000486827    0.1000
13     C13     0.3254   -4.0620    8.8513 C.3      1 ZINC000000486827   -0.1400
14     C14     1.1352   -4.4689   10.0845 C.3      1 ZINC000000486827   -0.1200
15     C15     2.5988   -4.6781    9.6895 C.3      1 ZINC000000486827   -0.1400
16     C16     3.1693   -3.3697    9.1461 C.3      1 ZINC000000486827    0.1100
17     C17     0.6981   -1.2115    3.5100 C.ar     1 ZINC000000486827   -0.2100
18     C18     0.0330   -0.7493    2.3909 C.ar     1 ZINC000000486827   -0.0800
19     H19     1.0039    1.9031    0.0027 H        1 ZINC000000486827    0.0600
20     H20    -0.5459    1.8868   -0.8726 H        1 ZINC000000486827    0.0600
21     H21    -0.5289    1.8773    0.9072 H        1 ZINC000000486827    0.0500
22     H22    -1.0205   -0.3814    0.0098 H        1 ZINC000000486827    0.0700
23     H23     0.5123   -0.3556   -0.8948 H        1 ZINC000000486827    0.0700
24     H24     2.6409   -0.5123    0.2626 H        1 ZINC000000486827    0.1300
25     H25     3.8350   -1.3280    2.2545 H        1 ZINC000000486827    0.1300
26     H26     1.4568   -1.1816    6.0433 H        1 ZINC000000486827    0.0900
27     H27     1.1854   -2.8610    5.5194 H        1 ZINC000000486827    0.0900
28     H28     0.7051   -1.9456    9.0269 H        1 ZINC000000486827    0.0800
29     H29     0.3638   -2.4971    7.3667 H        1 ZINC000000486827    0.0800
30     H30    -0.7212   -3.9360    9.1286 H        1 ZINC000000486827    0.0800
31     H31     0.4095   -4.8366    8.0890 H        1 ZINC000000486827    0.0700
32     H32     1.0708   -3.6828   10.8368 H        1 ZINC000000486827    0.0700
33     H33     0.7333   -5.3961   10.4931 H        1 ZINC000000486827    0.0700
34     H34     3.1704   -4.9905   10.5634 H        1 ZINC000000486827    0.0800
35     H35     2.6615   -5.4468    8.9193 H        1 ZINC000000486827    0.0700
36     H36     4.1791   -3.5387    8.7723 H        1 ZINC000000486827    0.1000
37     H37     3.1914   -2.6231    9.9400 H        1 ZINC000000486827    0.0700
38     H38     0.1518   -1.4077    4.4208 H        1 ZINC000000486827    0.1300
39     H39    -1.0341   -0.5870    2.4261 H        1 ZINC000000486827    0.1300
@<TRIPOS>BOND
1     1     2     1
2     1     19    1
3     1     20    1
4     1     21    1
5     2     3     1
6     2     22    1
7     2     23    1
8     3     18    ar
9     3     4     ar
10    4     5     ar
11    4     24    1
12    5     6     ar
13    5     25    1
14    6     7     1
15    6     17    ar
16    7     8     1
17    8     9     1
18    8     26    1
19    8     27    1
20    9     10    2
21    9     11    am
22    11    16    1
23    11    12    1
24    12    13    1
25    12    28    1
26    12    29    1
27    13    14    1
28    13    30    1
29    13    31    1
30    14    15    1
31    14    32    1
32    14    33    1
33    15    16    1
34    15    34    1
35    15    35    1
36    16    36    1
37    16    37    1
38    17    18    ar
39    17    38    1
40    18    39    1
@<TRIPOS>SUBSTRUCTURE
1   ZINC000000486827 1     RESIDUE    1   A     ZIN   1
