@<TRIPOS>MOLECULE
ZINC000001532216
33    35    1     0     0
SMALL
USER_CHARGES
@<TRIPOS>ATOM
1      O1     -0.0635    0.4613   -0.1330 O.co2    1 ZINC000001532216   -1.0200
2      S2      0.0142    1.9119   -0.0577 S.o2     1 ZINC000001532216    2.7000
3      O3      1.3888    2.3819    0.0178 O.co2    1 ZINC000001532216   -1.0700
4      O4     -0.7242    2.5547   -1.1337 O.co2    1 ZINC000001532216   -1.0600
5      C5     -0.7680    2.3851    1.4485 C.ar     1 ZINC000001532216   -0.6400
6      C6     -2.1677    2.4360    1.5303 C.ar     1 ZINC000001532216    0.0100
7      C7     -2.7803    2.8181    2.7493 C.ar     1 ZINC000001532216   -0.0600
8      C8     -1.9732    3.1394    3.8539 C.ar     1 ZINC000001532216   -0.0900
9      C9     -0.6180    3.0795    3.7382 C.ar     1 ZINC000001532216   -0.1300
10     C10    -0.0170    2.6979    2.5409 C.ar     1 ZINC000001532216   -0.0300
11     C11    -4.1825    2.8686    2.8329 C.ar     1 ZINC000001532216   -0.1200
12     C12    -4.9403    2.5516    1.7472 C.ar     1 ZINC000001532216   -0.1100
13     C13    -4.3505    2.1744    0.5443 C.ar     1 ZINC000001532216   -0.1300
14     C14    -2.9788    2.1131    0.4205 C.ar     1 ZINC000001532216    0.1700
15     N15    -2.3981    1.7342   -0.7882 N.pl3    1 ZINC000001532216   -0.6900
16     C16    -2.0566    0.3981   -1.0105 C.ar     1 ZINC000001532216    0.2700
17     C17    -2.3668   -0.5672   -0.0606 C.ar     1 ZINC000001532216   -0.1700
18     C18    -2.0276   -1.8871   -0.2836 C.ar     1 ZINC000001532216   -0.0700
19     C19    -1.3795   -2.2485   -1.4506 C.ar     1 ZINC000001532216   -0.1900
20     C20    -1.0688   -1.2903   -2.3980 C.ar     1 ZINC000001532216   -0.0800
21     C21    -1.4109    0.0305   -2.1845 C.ar     1 ZINC000001532216   -0.1600
22     H22    -2.4256    3.4328    4.7896 H        1 ZINC000001532216    0.1200
23     H23     0.0001    3.3273    4.5885 H        1 ZINC000001532216    0.1200
24     H24     1.0603    2.6580    2.4752 H        1 ZINC000001532216    0.1300
25     H25    -4.6585    3.1584    3.7580 H        1 ZINC000001532216    0.1200
26     H26    -6.0170    2.5933    1.8207 H        1 ZINC000001532216    0.1200
27     H27    -4.9745    1.9272   -0.3018 H        1 ZINC000001532216    0.1300
28     H28    -2.2311    2.3983   -1.4752 H        1 ZINC000001532216    0.4400
29     H29    -2.8723   -0.2855    0.8513 H        1 ZINC000001532216    0.1000
30     H30    -2.2684   -2.6380    0.4544 H        1 ZINC000001532216    0.1000
31     H31    -1.1150   -3.2815   -1.6222 H        1 ZINC000001532216    0.1000
32     H32    -0.5619   -1.5758   -3.3079 H        1 ZINC000001532216    0.1000
33     H33    -1.1680    0.7784   -2.9248 H        1 ZINC000001532216    0.1100
@<TRIPOS>BOND
1     1     2     ar
2     2     3     ar
3     2     4     ar
4     2     5     1
5     5     10    ar
6     5     6     ar
7     6     14    ar
8     6     7     ar
9     7     8     ar
10    7     11    ar
11    8     9     ar
12    8     22    1
13    9     10    ar
14    9     23    1
15    10    24    1
16    11    12    ar
17    11    25    1
18    12    13    ar
19    12    26    1
20    13    14    ar
21    13    27    1
22    14    15    1
23    15    16    1
24    15    28    1
25    16    21    ar
26    16    17    ar
27    17    18    ar
28    17    29    1
29    18    19    ar
30    18    30    1
31    19    20    ar
32    19    31    1
33    20    21    ar
34    20    32    1
35    21    33    1
@<TRIPOS>SUBSTRUCTURE
1   ZINC000001532216 1     RESIDUE    1   A     ZIN   1
