@<TRIPOS>MOLECULE
ZINC000065363051
38    39    1     0     0
SMALL
USER_CHARGES
@<TRIPOS>ATOM
1      C1     -1.0495    1.3950    0.0500 C.3      1 ZINC000065363051   -0.1200
2      C2     -0.7588   -0.0836    0.0313 C.ar     1 ZINC000065363051   -0.0600
3      C3     -1.2158   -0.8885    1.0598 C.ar     1 ZINC000065363051   -0.1200
4      C4     -0.9531   -2.2428    1.0487 C.ar     1 ZINC000065363051   -0.0900
5      C5     -0.2248   -2.8005   -0.0028 C.ar     1 ZINC000065363051   -0.1500
6      C6      0.0602   -4.2528   -0.0214 C.2      1 ZINC000065363051    0.4800
7      O7      0.1897   -4.8352   -1.0848 O.2      1 ZINC000065363051   -0.4900
8      C8      0.1818   -4.9616    1.1885 C.2      1 ZINC000065363051   -0.4500
9      C9      0.3152   -6.3262    1.2947 C.2      1 ZINC000065363051    0.3700
10     N10     0.3467   -7.1776    0.2016 N.pl3    1 ZINC000065363051   -0.8200
11     C11     0.4163   -6.7653    2.6128 C.2      1 ZINC000065363051   -0.2400
12     C12     0.5628   -8.1451    2.9668 C.1      1 ZINC000065363051    0.2800
13     N13     0.6790   -9.2397    3.2476 N.1      1 ZINC000065363051   -0.4300
14     C14     0.3630   -5.7514    3.5462 C.2      1 ZINC000065363051    0.1900
15     N15     0.4425   -5.9384    4.9061 N.pl3    1 ZINC000065363051   -0.6800
16     C16     0.3748   -4.7867    5.8090 C.3      1 ZINC000065363051    0.1300
17     C17    -0.1328   -5.2417    7.1787 C.3      1 ZINC000065363051   -0.1600
18     C18     1.7687   -4.1739    5.9594 C.3      1 ZINC000065363051   -0.1800
19     S19     0.1932   -4.2343    2.7871 S.3      1 ZINC000065363051    0.2600
20     C20     0.2332   -1.9834   -1.0371 C.ar     1 ZINC000065363051   -0.0600
21     C21    -0.0410   -0.6314   -1.0170 C.ar     1 ZINC000065363051   -0.1300
22     H22    -1.9947    1.5859   -0.4582 H        1 ZINC000065363051    0.0700
23     H23    -1.1158    1.7392    1.0820 H        1 ZINC000065363051    0.0700
24     H24    -0.2481    1.9292   -0.4604 H        1 ZINC000065363051    0.0700
25     H25    -1.7791   -0.4555    1.8733 H        1 ZINC000065363051    0.1300
26     H26    -1.3100   -2.8699    1.8522 H        1 ZINC000065363051    0.1300
27     H27     0.2727   -6.8175   -0.6960 H        1 ZINC000065363051    0.4200
28     H28     0.4428   -8.1337    0.3342 H        1 ZINC000065363051    0.4000
29     H29     0.5435   -6.8328    5.2675 H        1 ZINC000065363051    0.4100
30     H30    -0.3069   -4.0422    5.3978 H        1 ZINC000065363051    0.0900
31     H31     0.5490   -5.9862    7.5899 H        1 ZINC000065363051    0.0700
32     H32    -0.1832   -4.3849    7.8506 H        1 ZINC000065363051    0.0800
33     H33    -1.1258   -5.6783    7.0716 H        1 ZINC000065363051    0.0700
34     H34     2.1303   -3.8498    4.9836 H        1 ZINC000065363051    0.0700
35     H35     1.7183   -3.3171    6.6312 H        1 ZINC000065363051    0.0800
36     H36     2.4504   -4.9184    6.3706 H        1 ZINC000065363051    0.0700
37     H37     0.7974   -2.4090   -1.8537 H        1 ZINC000065363051    0.1300
38     H38     0.3129    0.0022   -1.8168 H        1 ZINC000065363051    0.1300
@<TRIPOS>BOND
1     1     2     1
2     1     22    1
3     1     23    1
4     1     24    1
5     2     21    ar
6     2     3     ar
7     3     4     ar
8     3     25    1
9     4     5     ar
10    4     26    1
11    5     6     1
12    5     20    ar
13    6     7     2
14    6     8     1
15    8     19    1
16    8     9     2
17    9     10    1
18    9     11    1
19    10    27    1
20    10    28    1
21    11    12    1
22    11    14    2
23    12    13    3
24    14    15    1
25    14    19    1
26    15    16    1
27    15    29    1
28    16    17    1
29    16    18    1
30    16    30    1
31    17    31    1
32    17    32    1
33    17    33    1
34    18    34    1
35    18    35    1
36    18    36    1
37    20    21    ar
38    20    37    1
39    21    38    1
@<TRIPOS>SUBSTRUCTURE
1   ZINC000065363051 1     RESIDUE    1   A     ZIN   1
