@<TRIPOS>MOLECULE
ZINC000000897030
  22   24    0    0    0
SMALL
USER_CHARGES
NO_NAME
@<TRIPOS>ATOM
    1 Cl1       0.0021    -0.0041     0.0020 Cl     1 <0>      -0.0200
    2 C2       -0.0215     1.7317     0.0116 C.ar   1 <0>      -0.0200
    3 C3       -1.2300     2.4064     0.0325 C.ar   1 <0>      -0.0800
    4 C4       -1.2495     3.7910     0.0406 C.ar   1 <0>       0.0700
    5 C5       -0.0534     4.5022     0.0276 C.ar   1 <0>       0.0700
    6 C6        1.1533     3.8232     0.0067 C.ar   1 <0>      -0.0800
    7 C7        1.1682     2.4389     0.0040 C.ar   1 <0>      -0.0200
    8 Cl8       2.6815     1.5887    -0.0222 Cl     1 <0>      -0.0200
    9 O9       -0.0705     5.8624     0.0351 O.3    1 <0>      -0.2300
   10 C10      -1.2573     6.5271     0.0545 C.ar   1 <0>       0.0700
   11 C11      -1.2775     7.9117     0.0610 C.ar   1 <0>      -0.0800
   12 C12      -2.4864     8.5858     0.0803 C.ar   1 <0>      -0.0200
   13 Cl13     -2.5106    10.3216     0.0879 Cl     1 <0>      -0.0200
   14 C14      -3.6758     7.8783     0.0933 C.ar   1 <0>      -0.0200
   15 Cl15     -5.1894     8.7281     0.1175 Cl     1 <0>      -0.0200
   16 C16      -3.6603     6.4941     0.0864 C.ar   1 <0>      -0.0800
   17 C17      -2.4533     5.8158     0.0675 C.ar   1 <0>       0.0700
   18 O18      -2.4362     4.4556     0.0607 O.3    1 <0>      -0.2300
   19 H19      -2.1575     1.8531     0.0422 H      1 <0>       0.1700
   20 H20       2.0826     4.3734    -0.0037 H      1 <0>       0.1700
   21 H21      -0.3503     8.4655     0.0513 H      1 <0>       0.1700
   22 H22      -4.5894     5.9435     0.0958 H      1 <0>       0.1700
@<TRIPOS>BOND
   1    1    2 1
   2    2    7 ar
   3    2    3 ar
   4    3    4 ar
   5    3   19 1
   6    4   18 1
   7    4    5 ar
   8    5    6 ar
   9    5    9 1
  10    6    7 ar
  11    6   20 1
  12    7    8 1
  13    9   10 1
  14   10   17 ar
  15   10   11 ar
  16   11   12 ar
  17   11   21 1
  18   12   13 1
  19   12   14 ar
  20   14   15 1
  21   14   16 ar
  22   16   17 ar
  23   16   22 1
  24   17   18 1
