@<TRIPOS>MOLECULE
ZINC000220062787
49    53    1     0     0
SMALL
USER_CHARGES
@<TRIPOS>ATOM
1      C1     -0.0187    1.5258    0.0104 C.3      1 ZINC000220062787   -0.1400
2      C2      0.0021   -0.0041    0.0020 C.3      1 ZINC000220062787   -0.1300
3      C3      0.7182   -0.4975   -1.2568 C.3      1 ZINC000220062787    0.2000
4      H4      1.7103   -0.0491   -1.3098 H        1 ZINC000220062787    0.1400
5      N5     -0.0549   -0.1139   -2.4405 N.pl3    1 ZINC000220062787   -0.7100
6      C6      0.1116    1.1431   -2.9993 C.ar     1 ZINC000220062787    0.4800
7      C7     -0.6213    1.5269   -4.1237 C.ar     1 ZINC000220062787   -0.1300
8      N8     -1.5737    0.9305   -4.9228 N.pl3    1 ZINC000220062787   -0.5800
9      C9     -1.9119    1.8266   -5.8772 C.2      1 ZINC000220062787    0.3000
10     N10    -1.2334    2.9288   -5.7180 N.2      1 ZINC000220062787   -0.4900
11     C11    -0.4176    2.8119   -4.6534 C.ar     1 ZINC000220062787    0.3200
12     N12     0.4695    3.6167   -4.0600 N.ar     1 ZINC000220062787   -0.5200
13     C13     1.1368    3.2116   -3.0020 C.ar     1 ZINC000220062787    0.3400
14     N14     0.9696    2.0133   -2.4729 N.ar     1 ZINC000220062787   -0.5600
15     C15     0.8473   -1.9981   -1.2057 C.2      1 ZINC000220062787    0.1400
16     C16     2.0919   -2.5381   -1.1214 C.2      1 ZINC000220062787   -0.2200
17     C17     3.2961   -1.6745   -1.0592 C.ar     1 ZINC000220062787    0.0000
18     C18     3.6321   -0.8643   -2.1422 C.ar     1 ZINC000220062787   -0.1100
19     C19     4.7534   -0.0617   -2.0800 C.ar     1 ZINC000220062787   -0.0800
20     C20     5.5441   -0.0599   -0.9457 C.ar     1 ZINC000220062787   -0.1400
21     C21     5.2162   -0.8634    0.1345 C.ar     1 ZINC000220062787    0.1000
22     F22     5.9927   -0.8578    1.2400 F        1 ZINC000220062787   -0.1400
23     C23     4.0922   -1.6663    0.0845 C.ar     1 ZINC000220062787   -0.1200
24     C24     2.2095   -4.0083   -1.0930 C.2      1 ZINC000220062787    0.4300
25     O25     3.2488   -4.5695   -0.7929 O.2      1 ZINC000220062787   -0.4400
26     C26     0.9873   -4.7572   -1.4508 C.ar     1 ZINC000220062787   -0.2100
27     C27     1.0241   -6.1239   -1.7168 C.ar     1 ZINC000220062787   -0.0300
28     C28    -0.1397   -6.7818   -2.0520 C.ar     1 ZINC000220062787   -0.1400
29     C29    -1.3377   -6.0863   -2.1244 C.ar     1 ZINC000220062787   -0.0600
30     C30    -1.3860   -4.7343   -1.8618 C.ar     1 ZINC000220062787   -0.1400
31     C31    -0.2245   -4.0497   -1.5178 C.ar     1 ZINC000220062787    0.1400
32     O32    -0.2641   -2.7318   -1.2400 O.3      1 ZINC000220062787   -0.2100
33     H33     1.0039    1.9031    0.0027 H        1 ZINC000220062787    0.0700
34     H34    -0.5459    1.8868   -0.8726 H        1 ZINC000220062787    0.0500
35     H35    -0.5289    1.8773    0.9072 H        1 ZINC000220062787    0.0500
36     H36     0.5293   -0.3651    0.8851 H        1 ZINC000220062787    0.0800
37     H37    -1.0205   -0.3814    0.0098 H        1 ZINC000220062787    0.0700
38     H38    -0.6834   -0.7398   -2.8331 H        1 ZINC000220062787    0.4100
39     H39    -1.9334    0.0356   -4.8198 H        1 ZINC000220062787    0.4300
40     H40    -2.6382    1.6546   -6.6578 H        1 ZINC000220062787    0.2300
41     H41     1.8463    3.8861   -2.5460 H        1 ZINC000220062787    0.2100
42     H42     3.0160   -0.8646   -3.0292 H        1 ZINC000220062787    0.1300
43     H43     5.0140    0.5659   -2.9194 H        1 ZINC000220062787    0.1400
44     H44     6.4205    0.5697   -0.9017 H        1 ZINC000220062787    0.1400
45     H45     3.8366   -2.2926    0.9265 H        1 ZINC000220062787    0.1400
46     H46     1.9577   -6.6640   -1.6613 H        1 ZINC000220062787    0.1400
47     H47    -0.1188   -7.8416   -2.2591 H        1 ZINC000220062787    0.1400
48     H48    -2.2437   -6.6107   -2.3901 H        1 ZINC000220062787    0.1400
49     H49    -2.3259   -4.2059   -1.9227 H        1 ZINC000220062787    0.1400
@<TRIPOS>BOND
1     1     2     1
2     1     33    1
3     1     34    1
4     1     35    1
5     2     3     1
6     2     36    1
7     2     37    1
8     3     4     1
9     3     5     1
10    3     15    1
11    5     6     1
12    5     38    1
13    6     14    ar
14    6     7     ar
15    7     11    ar
16    7     8     1
17    8     9     1
18    8     39    1
19    9     10    2
20    9     40    1
21    10    11    1
22    11    12    ar
23    12    13    ar
24    13    14    ar
25    13    41    1
26    15    32    1
27    15    16    2
28    16    17    1
29    16    24    1
30    17    23    ar
31    17    18    ar
32    18    19    ar
33    18    42    1
34    19    20    ar
35    19    43    1
36    20    21    ar
37    20    44    1
38    21    22    1
39    21    23    ar
40    23    45    1
41    24    25    2
42    24    26    1
43    26    31    ar
44    26    27    ar
45    27    28    ar
46    27    46    1
47    28    29    ar
48    28    47    1
49    29    30    ar
50    29    48    1
51    30    31    ar
52    30    49    1
53    31    32    1
@<TRIPOS>SUBSTRUCTURE
1   ZINC000220062787 1     RESIDUE    1   A     ZIN   1
