@<TRIPOS>MOLECULE
ZINC000001531882
57    60    1     0     0
SMALL
USER_CHARGES
@<TRIPOS>ATOM
1      C1     -0.1968    1.4401   -0.2057 C.3      1 ZINC000001531882    0.0200
2      O2     -0.1101    0.0151   -0.1418 O.3      1 ZINC000001531882   -0.3000
3      C3      0.5592   -0.6084   -1.1482 C.ar     1 ZINC000001531882    0.1300
4      C4      1.1259    0.1381   -2.1733 C.ar     1 ZINC000001531882   -0.2000
5      C5      1.7947   -0.4954   -3.1947 C.ar     1 ZINC000001531882   -0.0100
6      C6      1.8993   -1.8849   -3.2286 C.ar     1 ZINC000001531882   -0.0900
7      C7      1.3449   -2.6356   -2.1844 C.ar     1 ZINC000001531882    0.1500
8      O8      1.4616   -3.9903   -2.1826 O.3      1 ZINC000001531882   -0.3100
9      C9      0.3803   -4.7354   -2.7462 C.3      1 ZINC000001531882    0.0400
10     C10     0.6818   -1.9938   -1.1490 C.ar     1 ZINC000001531882    0.0300
11     O11     0.1399   -2.7231   -0.1357 O.3      1 ZINC000001531882   -0.3200
12     C12     0.9727   -2.9786    0.9970 C.3      1 ZINC000001531882    0.0400
13     C13     2.5457   -2.5679   -4.3658 C.ar     1 ZINC000001531882   -0.0400
14     C14     2.0736   -2.3970   -5.6658 C.ar     1 ZINC000001531882   -0.0400
15     C15     2.7047   -2.9961   -6.7310 C.ar     1 ZINC000001531882   -0.1100
16     C16     3.8079   -3.8116   -6.5144 C.ar     1 ZINC000001531882    0.0500
17     O17     4.5936   -4.5152   -7.3809 O.3      1 ZINC000001531882   -0.3000
18     C18     5.7887   -4.8357   -6.6450 C.3      1 ZINC000001531882    0.2100
19     O19     5.3505   -4.8601   -5.2738 O.3      1 ZINC000001531882   -0.3000
20     C20     4.2753   -4.0180   -5.2195 C.ar     1 ZINC000001531882    0.0000
21     C21     3.6532   -3.3963   -4.1467 C.ar     1 ZINC000001531882    0.1400
22     O22     4.1186   -3.5908   -2.8840 O.3      1 ZINC000001531882   -0.3100
23     C23     5.1155   -2.6818   -2.4128 C.3      1 ZINC000001531882    0.0400
24     C24     0.8189   -1.5743   -5.8738 C.3      1 ZINC000001531882   -0.0800
25     C25     1.1974   -0.1966   -6.4166 C.3      1 ZINC000001531882   -0.0800
26     H26     2.1246   -0.2767   -6.9841 H        1 ZINC000001531882    0.0700
27     C27     0.0842    0.3049   -7.3387 C.3      1 ZINC000001531882   -0.1500
28     C28     1.3906    0.7987   -5.2763 C.3      1 ZINC000001531882   -0.0800
29     H29     1.7000    1.7597   -5.6874 H        1 ZINC000001531882    0.0800
30     C30     0.0663    0.9732   -4.5302 C.3      1 ZINC000001531882   -0.1600
31     C31     2.4562    0.3027   -4.2993 C.3      1 ZINC000001531882   -0.0800
32     H32     0.8066    1.8658   -0.1979 H        1 ZINC000001531882    0.0600
33     H33    -0.7084    1.7322   -1.1227 H        1 ZINC000001531882    0.0600
34     H34    -0.7547    1.8090    0.6550 H        1 ZINC000001531882    0.1000
35     H35     1.0411    1.2147   -2.1686 H        1 ZINC000001531882    0.1400
36     H36     0.3000   -4.5112   -3.8099 H        1 ZINC000001531882    0.0400
37     H37     0.5648   -5.8013   -2.6124 H        1 ZINC000001531882    0.0900
38     H38    -0.5489   -4.4620   -2.2462 H        1 ZINC000001531882    0.0500
39     H39     1.3378   -2.0340    1.4001 H        1 ZINC000001531882    0.0400
40     H40     0.3968   -3.5012    1.7609 H        1 ZINC000001531882    0.0900
41     H41     1.8187   -3.5957    0.6943 H        1 ZINC000001531882    0.0500
42     H42     2.3424   -2.8328   -7.7352 H        1 ZINC000001531882    0.1400
43     H43     6.1711   -5.8122   -6.9422 H        1 ZINC000001531882    0.1300
44     H44     6.5464   -4.0660   -6.7913 H        1 ZINC000001531882    0.0800
45     H45     4.7170   -1.6673   -2.4250 H        1 ZINC000001531882    0.0500
46     H46     5.3984   -2.9488   -1.3945 H        1 ZINC000001531882    0.1000
47     H47     5.9913   -2.7360   -3.0593 H        1 ZINC000001531882    0.0400
48     H48     0.1673   -2.0793   -6.5868 H        1 ZINC000001531882    0.0800
49     H49     0.2978   -1.4597   -4.9232 H        1 ZINC000001531882    0.0900
50     H50    -0.8477    0.3764   -6.7777 H        1 ZINC000001531882    0.0600
51     H51     0.3501    1.2875   -7.7282 H        1 ZINC000001531882    0.0600
52     H52    -0.0430   -0.3921   -8.1671 H        1 ZINC000001531882    0.0600
53     H53    -0.2526    0.0122   -4.1265 H        1 ZINC000001531882    0.0600
54     H54     0.1997    1.6837   -3.7144 H        1 ZINC000001531882    0.0600
55     H55    -0.6917    1.3479   -5.2181 H        1 ZINC000001531882    0.0600
56     H56     2.9791    1.1562   -3.8678 H        1 ZINC000001531882    0.0800
57     H57     3.1683   -0.3303   -4.8287 H        1 ZINC000001531882    0.0800
@<TRIPOS>BOND
1     1     2     1
2     1     32    1
3     1     33    1
4     1     34    1
5     2     3     1
6     3     10    ar
7     3     4     ar
8     4     5     ar
9     4     35    1
10    5     31    1
11    5     6     ar
12    6     7     ar
13    6     13    1
14    7     8     1
15    7     10    ar
16    8     9     1
17    9     36    1
18    9     37    1
19    9     38    1
20    10    11    1
21    11    12    1
22    12    39    1
23    12    40    1
24    12    41    1
25    13    21    ar
26    13    14    ar
27    14    15    ar
28    14    24    1
29    15    16    ar
30    15    42    1
31    16    20    ar
32    16    17    1
33    17    18    1
34    18    19    1
35    18    43    1
36    18    44    1
37    19    20    1
38    20    21    ar
39    21    22    1
40    22    23    1
41    23    45    1
42    23    46    1
43    23    47    1
44    24    25    1
45    24    48    1
46    24    49    1
47    25    26    1
48    25    27    1
49    25    28    1
50    27    50    1
51    27    51    1
52    27    52    1
53    28    29    1
54    28    30    1
55    28    31    1
56    30    53    1
57    30    54    1
58    30    55    1
59    31    56    1
60    31    57    1
@<TRIPOS>SUBSTRUCTURE
1   ZINC000001531882 1     RESIDUE    1   A     ZIN   1
