@<TRIPOS>MOLECULE
ZINC000013983251
51    53    1     0     0
SMALL
USER_CHARGES
@<TRIPOS>ATOM
1      C1      0.0050    1.4098   -0.3325 C.3      1 ZINC000013983251    0.0200
2      O2      0.0153   -0.0128   -0.1984 O.3      1 ZINC000013983251   -0.2800
3      C3      0.9578   -0.6910   -0.9007 C.ar     1 ZINC000013983251    0.2100
4      C4      1.8586   -0.0042   -1.6981 C.ar     1 ZINC000013983251   -0.2100
5      C5      2.8193   -0.6936   -2.4140 C.ar     1 ZINC000013983251   -0.0500
6      C6      2.8909   -2.0752   -2.3416 C.ar     1 ZINC000013983251    0.0200
7      F7      3.8341   -2.7382   -3.0458 F        1 ZINC000013983251   -0.1200
8      C8      2.0002   -2.7783   -1.5504 C.ar     1 ZINC000013983251    0.1600
9      F9      2.0729   -4.1256   -1.4815 F        1 ZINC000013983251   -0.1000
10     C10     1.0271   -2.0896   -0.8173 C.ar     1 ZINC000013983251   -0.2200
11     C11     0.0740   -2.8301    0.0290 C.2      1 ZINC000013983251    0.4700
12     O12    -0.7054   -2.2246    0.7410 O.2      1 ZINC000013983251   -0.4100
13     C13     0.0649   -4.3015    0.0129 C.ar     1 ZINC000013983251   -0.3800
14     C14     0.6204   -5.0359    1.0670 C.ar     1 ZINC000013983251    0.2600
15     N15     0.5924   -6.3548    1.0148 N.ar     1 ZINC000013983251   -0.5900
16     C16     0.0484   -6.9895   -0.0166 C.ar     1 ZINC000013983251    0.6200
17     N17     0.0431   -8.3687   -0.0248 N.pl3    1 ZINC000013983251   -0.6900
18     C18     0.6317   -9.1102    1.0932 C.3      1 ZINC000013983251    0.1600
19     C19    -0.4049   -9.2573    2.2095 C.3      1 ZINC000013983251   -0.1500
20     C20     0.2247  -10.0027    3.3905 C.3      1 ZINC000013983251    0.1200
21     N21     0.7754  -11.2761    2.9067 N.am     1 ZINC000013983251   -1.0000
22     S22     0.3469  -12.7068    3.6221 S.o2     1 ZINC000013983251    2.6100
23     C23    -1.1154  -13.2544    2.6988 C.3      1 ZINC000013983251   -0.6700
24     O24     1.4480  -13.5686    3.3692 O.2      1 ZINC000013983251   -0.9500
25     O25    -0.0087  -12.3425    4.9488 O.2      1 ZINC000013983251   -0.9500
26     C26     1.7131  -11.2559    1.7758 C.3      1 ZINC000013983251    0.1300
27     C27     1.0668  -10.4965    0.6128 C.3      1 ZINC000013983251   -0.1500
28     N28    -0.4899   -6.3396   -1.0381 N.ar     1 ZINC000013983251   -0.6200
29     C29    -0.5100   -5.0125   -1.0645 C.ar     1 ZINC000013983251    0.5200
30     N30    -1.0715   -4.3401   -2.1290 N.pl3    1 ZINC000013983251   -0.8300
31     H31    -0.1604    1.6752   -1.3767 H        1 ZINC000013983251    0.0600
32     H32    -0.7950    1.8266    0.2794 H        1 ZINC000013983251    0.1100
33     H33     0.9625    1.8128   -0.0025 H        1 ZINC000013983251    0.0600
34     H34     1.8100    1.0729   -1.7608 H        1 ZINC000013983251    0.1500
35     H35     3.5182   -0.1518   -3.0339 H        1 ZINC000013983251    0.1600
36     H36     1.0660   -4.5307    1.9112 H        1 ZINC000013983251    0.1700
37     H37    -0.3504   -8.8478   -0.7708 H        1 ZINC000013983251    0.4100
38     H38     1.4984   -8.5685    1.4720 H        1 ZINC000013983251    0.1000
39     H39    -0.7316   -8.2697    2.5350 H        1 ZINC000013983251    0.0800
40     H40    -1.2613   -9.8205    1.8387 H        1 ZINC000013983251    0.0700
41     H41     1.0239   -9.3985    3.8197 H        1 ZINC000013983251    0.0800
42     H42    -0.5356  -10.1973    4.1469 H        1 ZINC000013983251    0.0900
43     H43    -0.8536  -13.3868    1.6490 H        1 ZINC000013983251    0.1300
44     H44    -1.4694  -14.2010    3.1071 H        1 ZINC000013983251    0.1300
45     H45    -1.9017  -12.5046    2.7855 H        1 ZINC000013983251    0.1300
46     H46     2.6337  -10.7540    2.0733 H        1 ZINC000013983251    0.0800
47     H47     1.9349  -12.2774    1.4668 H        1 ZINC000013983251    0.1000
48     H48     0.1965  -11.0480    0.2571 H        1 ZINC000013983251    0.0700
49     H49     1.7876  -10.3909   -0.1980 H        1 ZINC000013983251    0.0900
50     H50    -1.5201   -4.8345   -2.8327 H        1 ZINC000013983251    0.4100
51     H51    -1.0180   -3.3726   -2.1743 H        1 ZINC000013983251    0.4100
@<TRIPOS>BOND
1     1     2     1
2     1     31    1
3     1     32    1
4     1     33    1
5     2     3     1
6     3     10    ar
7     3     4     ar
8     4     5     ar
9     4     34    1
10    5     6     ar
11    5     35    1
12    6     7     1
13    6     8     ar
14    8     9     1
15    8     10    ar
16    10    11    1
17    11    12    2
18    11    13    1
19    13    29    ar
20    13    14    ar
21    14    15    ar
22    14    36    1
23    15    16    ar
24    16    17    1
25    16    28    ar
26    17    18    1
27    17    37    1
28    18    27    1
29    18    19    1
30    18    38    1
31    19    20    1
32    19    39    1
33    19    40    1
34    20    21    1
35    20    41    1
36    20    42    1
37    21    22    am
38    21    26    1
39    22    23    1
40    22    24    2
41    22    25    2
42    23    43    1
43    23    44    1
44    23    45    1
45    26    27    1
46    26    46    1
47    26    47    1
48    27    48    1
49    27    49    1
50    28    29    ar
51    29    30    1
52    30    50    1
53    30    51    1
@<TRIPOS>SUBSTRUCTURE
1   ZINC000013983251 1     RESIDUE    1   A     ZIN   1
