@<TRIPOS>MOLECULE
ZINC000005158963
  43   45    0    0    0
SMALL
USER_CHARGES
NO_NAME
@<TRIPOS>ATOM
    1 C1        0.1283     1.4956     0.0040 C.3    1 <0>      -0.1200
    2 C2        0.0720    -0.0103    -0.0028 C.2    1 <0>      -0.1400
    3 C3        0.2122    -0.7754     1.2879 C.3    1 <0>      -0.1200
    4 C4       -0.0987    -0.6543    -1.1308 C.2    1 <0>      -0.1600
    5 C5       -0.1216     0.1019    -2.4341 C.3    1 <0>      -0.0500
    6 C6        0.8825    -0.5012    -3.3824 C.ar   1 <0>      -0.1300
    7 C7        2.1891    -0.0362    -3.3965 C.ar   1 <0>       0.1200
    8 O8        2.5617     0.9633    -2.5544 O.3    1 <0>      -0.4900
    9 C9        3.1178    -0.5892    -4.2683 C.ar   1 <0>      -0.1500
   10 C10       2.7455    -1.6037    -5.1258 C.ar   1 <0>      -0.0700
   11 C11       1.4349    -2.0760    -5.1181 C.ar   1 <0>      -0.0400
   12 C12       1.0320    -3.1670    -6.0386 C.2    1 <0>      -0.2500
   13 C13       0.8355    -4.4301    -5.5811 C.2    1 <0>       0.1200
   14 O14       0.4571    -5.4387    -6.3675 O.3    1 <0>      -0.2200
   15 C15       0.5494    -5.3530    -7.7082 C.ar   1 <0>       0.1800
   16 C16       0.4716    -6.4954    -8.4928 C.ar   1 <0>      -0.2900
   17 C17       0.5568    -6.3991    -9.8725 C.ar   1 <0>       0.3200
   18 O18       0.4809    -7.5234   -10.6293 O.3    1 <0>      -0.6900
   19 C19       0.7186    -5.1641   -10.4911 C.ar   1 <0>      -0.2900
   20 C20       0.8015    -4.0134    -9.7286 C.ar   1 <0>       0.2200
   21 O21       0.9557    -2.8054   -10.3274 O.3    1 <0>      -0.4900
   22 C22       0.7250    -4.1051    -8.3338 C.ar   1 <0>      -0.3700
   23 C23       0.8273    -2.9095    -7.4779 C.2    1 <0>       0.4400
   24 O24       0.7512    -1.7801    -7.9309 O.2    1 <0>      -0.4800
   25 C25       0.5019    -1.5231    -4.2353 C.ar   1 <0>       0.1300
   26 O26      -0.7778    -1.9798    -4.2227 O.3    1 <0>      -0.4800
   27 H27       0.1844     1.8525     1.0324 H      1 <0>       0.0600
   28 H28       1.0092     1.8288    -0.5448 H      1 <0>       0.0700
   29 H29      -0.7680     1.8949    -0.4707 H      1 <0>       0.0600
   30 H30      -0.7724    -0.9224     1.7319 H      1 <0>       0.0600
   31 H31       0.6690    -1.7446     1.0880 H      1 <0>       0.0600
   32 H32       0.8413    -0.2125     1.9775 H      1 <0>       0.0600
   33 H33      -0.2231    -1.7271    -1.1266 H      1 <0>       0.1100
   34 H34      -1.1177     0.0405    -2.8724 H      1 <0>       0.0900
   35 H35       0.1318     1.1464    -2.2527 H      1 <0>       0.0900
   36 H36       2.8889     0.6548    -1.6983 H      1 <0>       0.3900
   37 H37       4.1341    -0.2239    -4.2752 H      1 <0>       0.1300
   38 H38       3.4698    -2.0314    -5.8032 H      1 <0>       0.1300
   39 H39       0.9933    -4.6274    -4.5311 H      1 <0>       0.1800
   40 H40       0.3448    -7.4614    -8.0268 H      1 <0>       0.1200
   41 H41       0.7800    -5.1037   -11.5676 H      1 <0>       0.1200
   42 H42       0.1228    -2.3642   -10.5431 H      1 <0>       0.3900
   43 H43      -0.9278    -2.7127    -3.6099 H      1 <0>       0.3800
@<TRIPOS>BOND
   1    1    2 1
   2    1   27 1
   3    1   28 1
   4    1   29 1
   5    2    3 1
   6    2    4 2
   7    3   30 1
   8    3   31 1
   9    3   32 1
  10    4    5 1
  11    4   33 1
  12    5    6 1
  13    5   34 1
  14    5   35 1
  15    6   25 ar
  16    6    7 ar
  17    7    8 1
  18    7    9 ar
  19    8   36 1
  20    9   10 ar
  21    9   37 1
  22   10   11 ar
  23   10   38 1
  24   11   12 1
  25   11   25 ar
  26   12   23 1
  27   12   13 2
  28   13   14 1
  29   13   39 1
  30   14   15 1
  31   15   22 ar
  32   15   16 ar
  33   16   17 ar
  34   16   40 1
  35   17   18 1
  36   17   19 ar
  37   19   20 ar
  38   19   41 1
  39   20   21 1
  40   20   22 ar
  41   21   42 1
  42   22   23 1
  43   23   24 2
  44   25   26 1
  45   26   43 1
