@<TRIPOS>MOLECULE
ZINC000012913829
46    49    1     0     0
SMALL
USER_CHARGES
@<TRIPOS>ATOM
1      O1      0.0021   -0.0041    0.0020 O.2      1 ZINC000012913829   -0.4700
2      C2     -0.0144    1.2086    0.0087 C.2      1 ZINC000012913829    0.5100
3      C3      1.2803    1.9798    0.0005 C.3      1 ZINC000012913829   -0.1200
4      C4      2.4566    1.0015   -0.0160 C.3      1 ZINC000012913829   -0.0600
5      C5      3.7513    1.7727   -0.0242 C.2      1 ZINC000012913829    0.4000
6      N6      3.6955    3.0698   -0.0114 N.2      1 ZINC000012913829   -0.5200
7      C7      4.8191    3.8300   -0.0172 C.ar     1 ZINC000012913829    0.1500
8      C8      4.7600    5.2247   -0.0030 C.ar     1 ZINC000012913829   -0.1100
9      C9      5.9264    5.9568   -0.0092 C.ar     1 ZINC000012913829   -0.0700
10     C10     7.1626    5.3251   -0.0294 C.ar     1 ZINC000012913829   -0.1400
11     C11     7.2467    3.9497   -0.0442 C.ar     1 ZINC000012913829   -0.0400
12     C12     6.0787    3.1906   -0.0378 C.ar     1 ZINC000012913829   -0.2000
13     C13     6.1064    1.7205   -0.0534 C.2      1 ZINC000012913829    0.5500
14     O14     7.1581    1.1079   -0.0721 O.2      1 ZINC000012913829   -0.5100
15     N15     4.9169    1.0749   -0.0391 N.am     1 ZINC000012913829   -0.6500
16     N16    -1.1906    1.8666    0.0178 N.am     1 ZINC000012913829   -0.6400
17     C17    -2.3848    1.1553    0.0196 C.2      1 ZINC000012913829    0.2700
18     N18    -2.4790   -0.1375    0.0187 N.2      1 ZINC000012913829   -0.4700
19     C19    -3.6962   -0.6480    0.0215 C.2      1 ZINC000012913829    0.0800
20     C20    -4.6772    0.2566    0.0249 C.2      1 ZINC000012913829   -0.2400
21     C21    -6.1547   -0.0400    0.0290 C.3      1 ZINC000012913829    0.0000
22     C22    -6.6431   -0.1398    1.4512 C.ar     1 ZINC000012913829   -0.0600
23     C23    -6.6258   -1.3584    2.1031 C.ar     1 ZINC000012913829   -0.0900
24     C24    -7.0733   -1.4525    3.4078 C.ar     1 ZINC000012913829   -0.1200
25     C25    -7.5387   -0.3259    4.0625 C.ar     1 ZINC000012913829    0.0700
26     F26    -7.9758   -0.4169    5.3376 F        1 ZINC000012913829   -0.1300
27     C27    -7.5557    0.8970    3.4085 C.ar     1 ZINC000012913829    0.0700
28     F28    -8.0097    1.9984    4.0457 F        1 ZINC000012913829   -0.1300
29     C29    -7.1026    0.9888    2.1043 C.ar     1 ZINC000012913829   -0.1200
30     S30    -3.9433    1.8582    0.0309 S.3      1 ZINC000012913829    0.1300
31     H31     1.3211    2.6120   -0.8866 H        1 ZINC000012913829    0.1100
32     H32     1.3381    2.6024    0.8933 H        1 ZINC000012913829    0.1100
33     H33     2.4158    0.3694    0.8710 H        1 ZINC000012913829    0.1100
34     H34     2.3988    0.3789   -0.9088 H        1 ZINC000012913829    0.1100
35     H35     3.8042    5.7271    0.0125 H        1 ZINC000012913829    0.1400
36     H36     5.8789    7.0357    0.0015 H        1 ZINC000012913829    0.1400
37     H37     8.0661    5.9168   -0.0340 H        1 ZINC000012913829    0.1300
38     H38     8.2111    3.4639   -0.0604 H        1 ZINC000012913829    0.1400
39     H39     4.8963    0.1052   -0.0484 H        1 ZINC000012913829    0.4200
40     H40    -1.2037    2.8365    0.0232 H        1 ZINC000012913829    0.4200
41     H41    -3.8830   -1.7117    0.0207 H        1 ZINC000012913829    0.1800
42     H42    -6.6876    0.7614   -0.4827 H        1 ZINC000012913829    0.0900
43     H43    -6.3372   -0.9837   -0.4849 H        1 ZINC000012913829    0.1100
44     H44    -6.2626   -2.2382    1.5926 H        1 ZINC000012913829    0.1400
45     H45    -7.0599   -2.4055    3.9159 H        1 ZINC000012913829    0.1500
46     H46    -7.1149    1.9406    1.5941 H        1 ZINC000012913829    0.1500
@<TRIPOS>BOND
1     1     2     2
2     2     3     1
3     2     16    am
4     3     4     1
5     3     31    1
6     3     32    1
7     4     5     1
8     4     33    1
9     4     34    1
10    5     15    1
11    5     6     2
12    6     7     1
13    7     12    ar
14    7     8     ar
15    8     9     ar
16    8     35    1
17    9     10    ar
18    9     36    1
19    10    11    ar
20    10    37    1
21    11    12    ar
22    11    38    1
23    12    13    1
24    13    14    2
25    13    15    am
26    15    39    1
27    16    17    1
28    16    40    1
29    17    30    1
30    17    18    2
31    18    19    1
32    19    20    2
33    19    41    1
34    20    21    1
35    20    30    1
36    21    22    1
37    21    42    1
38    21    43    1
39    22    29    ar
40    22    23    ar
41    23    24    ar
42    23    44    1
43    24    25    ar
44    24    45    1
45    25    26    1
46    25    27    ar
47    27    28    1
48    27    29    ar
49    29    46    1
@<TRIPOS>SUBSTRUCTURE
1   ZINC000012913829 1     RESIDUE    1   A     ZIN   1
