@<TRIPOS>MOLECULE
ZINC000025557700
  26   27    0    0    0
SMALL
USER_CHARGES
NO_NAME
@<TRIPOS>ATOM
    1 O1        0.0021    -0.0041     0.0020 O.2    1 <0>      -0.4800
    2 C2       -0.0145     1.2147     0.0087 C.2    1 <0>       0.4500
    3 C3        1.2439     1.9642     0.0007 C.2    1 <0>      -0.2200
    4 C4        2.4212     1.3056    -0.0140 C.2    1 <0>      -0.0100
    5 C5        3.6855     2.0587    -0.0221 C.ar   1 <0>      -0.0800
    6 C6        3.6708     3.4572    -0.0086 C.ar   1 <0>      -0.1000
    7 C7        4.8596     4.1556    -0.0163 C.ar   1 <0>      -0.1200
    8 C8        6.0654     3.4763    -0.0373 C.ar   1 <0>      -0.1100
    9 C9        6.0883     2.0924    -0.0507 C.ar   1 <0>      -0.1200
   10 C10       4.9082     1.3796    -0.0374 C.ar   1 <0>      -0.0900
   11 C11      -1.2950     1.9309     0.0187 C.2    1 <0>      -0.0800
   12 C12      -1.4635     3.3010     0.0209 C.2    1 <0>      -0.1200
   13 C13      -2.8398     3.5454     0.0307 C.2    1 <0>      -0.2100
   14 C14      -3.4748     2.3481     0.0343 C.2    1 <0>       0.0300
   15 N15      -2.5468     1.3593     0.0215 N.pl3  1 <0>      -0.5300
   16 H16       1.2292     3.0441     0.0067 H      1 <0>       0.1400
   17 H17       2.4359     0.2257    -0.0200 H      1 <0>       0.1400
   18 H18       2.7307     3.9887     0.0074 H      1 <0>       0.1300
   19 H19       4.8500     5.2355    -0.0063 H      1 <0>       0.1300
   20 H20       6.9932     4.0290    -0.0436 H      1 <0>       0.1300
   21 H21       7.0332     1.5696    -0.0674 H      1 <0>       0.1300
   22 H22       4.9277     0.2998    -0.0479 H      1 <0>       0.1300
   23 H23      -0.6798     4.0441     0.0159 H      1 <0>       0.1500
   24 H24      -3.3131     4.5162     0.0351 H      1 <0>       0.1500
   25 H25      -4.5452     2.2048     0.0417 H      1 <0>       0.1700
   26 H26      -2.7341     0.4076     0.0206 H      1 <0>       0.4200
@<TRIPOS>BOND
   1    1    2 2
   2    2    3 1
   3    2   11 1
   4    3    4 2
   5    3   16 1
   6    4    5 1
   7    4   17 1
   8    5   10 ar
   9    5    6 ar
  10    6    7 ar
  11    6   18 1
  12    7    8 ar
  13    7   19 1
  14    8    9 ar
  15    8   20 1
  16    9   10 ar
  17    9   21 1
  18   10   22 1
  19   11   15 1
  20   11   12 2
  21   12   13 1
  22   12   23 1
  23   13   14 2
  24   13   24 1
  25   14   15 1
  26   14   25 1
  27   15   26 1
