@<TRIPOS>MOLECULE
ZINC000005733557
31    33    1     0     0
SMALL
USER_CHARGES
@<TRIPOS>ATOM
1      C1     -0.0173    1.4248    0.0099 C.3      1 ZINC000005733557    0.0300
2      O2      0.0021   -0.0041    0.0020 O.3      1 ZINC000005733557   -0.3200
3      C3      0.6252   -0.6177    1.0404 C.ar     1 ZINC000005733557    0.1400
4      C4      1.2016    0.1435    2.0502 C.ar     1 ZINC000005733557   -0.2100
5      C5      1.8347   -0.4749    3.1054 C.ar     1 ZINC000005733557   -0.0400
6      C6      1.8969   -1.8703    3.1598 C.ar     1 ZINC000005733557   -0.1000
7      C7      2.5735   -2.5369    4.2882 C.2      1 ZINC000005733557    0.2000
8      C8      2.6226   -3.8968    4.3106 C.2      1 ZINC000005733557   -0.3200
9      C9      3.2673   -4.5539    5.3838 C.2      1 ZINC000005733557    0.4300
10     O10     3.3305   -5.7713    5.4359 O.2      1 ZINC000005733557   -0.5200
11     C11     3.8609   -3.7097    6.4379 C.ar     1 ZINC000005733557   -0.3500
12     C12     4.5164   -4.2720    7.5330 C.ar     1 ZINC000005733557    0.0000
13     C13     5.0552   -3.4603    8.4910 C.ar     1 ZINC000005733557   -0.2700
14     C14     4.9531   -2.0758    8.3795 C.ar     1 ZINC000005733557    0.3100
15     O15     5.4936   -1.2816    9.3386 O.3      1 ZINC000005733557   -0.7000
16     C16     4.3051   -1.5025    7.2975 C.ar     1 ZINC000005733557   -0.2900
17     C17     3.7532   -2.3136    6.3171 C.ar     1 ZINC000005733557    0.1900
18     O18     3.1218   -1.7791    5.2509 O.3      1 ZINC000005733557   -0.2300
19     C19     1.3158   -2.6320    2.1420 C.ar     1 ZINC000005733557   -0.0500
20     C20     0.6798   -2.0054    1.0934 C.ar     1 ZINC000005733557   -0.1500
21     H21     1.0053    1.8021    0.0021 H        1 ZINC000005733557    0.0600
22     H22    -0.5445    1.7859   -0.8732 H        1 ZINC000005733557    0.1000
23     H23    -0.5275    1.7763    0.9067 H        1 ZINC000005733557    0.0600
24     H24     1.1534    1.2216    2.0072 H        1 ZINC000005733557    0.1300
25     H25     2.2827    0.1174    3.8895 H        1 ZINC000005733557    0.1400
26     H26     2.1720   -4.4703    3.5140 H        1 ZINC000005733557    0.1500
27     H27     4.5975   -5.3451    7.6236 H        1 ZINC000005733557    0.1100
28     H28     5.5626   -3.8947    9.3396 H        1 ZINC000005733557    0.1100
29     H29     4.2296   -0.4281    7.2180 H        1 ZINC000005733557    0.1100
30     H30     1.3620   -3.7103    2.1800 H        1 ZINC000005733557    0.1400
31     H31     0.2305   -2.5931    0.3065 H        1 ZINC000005733557    0.1400
@<TRIPOS>BOND
1     1     2     1
2     1     21    1
3     1     22    1
4     1     23    1
5     2     3     1
6     3     20    ar
7     3     4     ar
8     4     5     ar
9     4     24    1
10    5     6     ar
11    5     25    1
12    6     7     1
13    6     19    ar
14    7     18    1
15    7     8     2
16    8     9     1
17    8     26    1
18    9     10    2
19    9     11    1
20    11    17    ar
21    11    12    ar
22    12    13    ar
23    12    27    1
24    13    14    ar
25    13    28    1
26    14    15    1
27    14    16    ar
28    16    17    ar
29    16    29    1
30    17    18    1
31    19    20    ar
32    19    30    1
33    20    31    1
@<TRIPOS>SUBSTRUCTURE
1   ZINC000005733557 1     RESIDUE    1   A     ZIN   1
