@<TRIPOS>MOLECULE
ZINC000028890319
41    43    1     0     0
SMALL
USER_CHARGES
@<TRIPOS>ATOM
1      O1      0.0021   -0.0041    0.0020 O.2      1 ZINC000028890319   -0.4300
2      C2     -0.0143    1.2041    0.0087 C.2      1 ZINC000028890319    0.4700
3      O3     -1.1215    1.9598    0.0291 O.3      1 ZINC000028890319   -0.3200
4      C4     -0.8019    3.2956    0.5191 C.3      1 ZINC000028890319    0.0900
5      H5     -1.4627    4.0351    0.0670 H        1 ZINC000028890319    0.1400
6      C6     -0.9105    3.3454    2.0445 C.3      1 ZINC000028890319    0.0300
7      O7     -2.2737    3.1606    2.4312 O.3      1 ZINC000028890319   -0.2700
8      C8     -2.5450    3.1780    3.7628 C.ar     1 ZINC000028890319    0.2000
9      C9     -1.5213    3.3746    4.6778 C.ar     1 ZINC000028890319   -0.2200
10     C10    -1.7998    3.3923    6.0310 C.ar     1 ZINC000028890319   -0.0300
11     C11    -3.0975    3.2143    6.4732 C.ar     1 ZINC000028890319   -0.1500
12     C12    -4.1198    3.0177    5.5629 C.ar     1 ZINC000028890319   -0.0200
13     C13    -3.8474    3.0048    4.2089 C.ar     1 ZINC000028890319   -0.0800
14     N14    -4.9421    2.7949    3.2352 N.pl3    1 ZINC000028890319    0.0300
15     O15    -6.0837    2.6333    3.6278 O.2      1 ZINC000028890319   -0.1800
16     O16    -4.7013    2.7837    2.0413 O.2      1 ZINC000028890319   -0.1300
17     C17     0.6586    3.5314    0.0713 C.3      1 ZINC000028890319   -0.1400
18     C18     1.2119    2.0908    0.0017 C.3      1 ZINC000028890319   -0.1500
19     H19     1.8414    1.8840    0.8672 H        1 ZINC000028890319    0.1200
20     C20     2.0028    1.8861   -1.2919 C.3      1 ZINC000028890319   -0.0600
21     C21     2.6350    0.5181   -1.2830 C.ar     1 ZINC000028890319   -0.1000
22     C22     3.8981    0.3439   -0.7492 C.ar     1 ZINC000028890319   -0.1100
23     C23     4.4780   -0.9109   -0.7411 C.ar     1 ZINC000028890319   -0.1200
24     C24     3.7945   -1.9916   -1.2662 C.ar     1 ZINC000028890319   -0.1200
25     C25     2.5309   -1.8176   -1.7992 C.ar     1 ZINC000028890319   -0.1200
26     C26     1.9493   -0.5635   -1.8035 C.ar     1 ZINC000028890319   -0.0900
27     H27    -0.2993    2.5539    2.4782 H        1 ZINC000028890319    0.0800
28     H28    -0.5592    4.3132    2.4024 H        1 ZINC000028890319    0.1000
29     H29    -0.5073    3.5133    4.3329 H        1 ZINC000028890319    0.1500
30     H30    -1.0030    3.5450    6.7440 H        1 ZINC000028890319    0.1500
31     H31    -3.3131    3.2284    7.5314 H        1 ZINC000028890319    0.1500
32     H32    -5.1327    2.8785    5.9109 H        1 ZINC000028890319    0.1600
33     H33     0.6922    4.0124   -0.9062 H        1 ZINC000028890319    0.1100
34     H34     1.2022    4.1173    0.8124 H        1 ZINC000028890319    0.1000
35     H35     1.3307    1.9702   -2.1459 H        1 ZINC000028890319    0.0800
36     H36     2.7812    2.6455   -1.3660 H        1 ZINC000028890319    0.0900
37     H37     4.4322    1.1882   -0.3389 H        1 ZINC000028890319    0.1200
38     H38     5.4652   -1.0469   -0.3247 H        1 ZINC000028890319    0.1200
39     H39     4.2478   -2.9719   -1.2605 H        1 ZINC000028890319    0.1200
40     H40     1.9971   -2.6618   -2.2098 H        1 ZINC000028890319    0.1200
41     H41     0.9621   -0.4276   -2.2198 H        1 ZINC000028890319    0.1200
@<TRIPOS>BOND
1     1     2     2
2     2     18    1
3     2     3     1
4     3     4     1
5     4     5     1
6     4     6     1
7     4     17    1
8     6     7     1
9     6     27    1
10    6     28    1
11    7     8     1
12    8     13    ar
13    8     9     ar
14    9     10    ar
15    9     29    1
16    10    11    ar
17    10    30    1
18    11    12    ar
19    11    31    1
20    12    13    ar
21    12    32    1
22    13    14    1
23    14    15    2
24    14    16    2
25    17    18    1
26    17    33    1
27    17    34    1
28    18    19    1
29    18    20    1
30    20    21    1
31    20    35    1
32    20    36    1
33    21    26    ar
34    21    22    ar
35    22    23    ar
36    22    37    1
37    23    24    ar
38    23    38    1
39    24    25    ar
40    24    39    1
41    25    26    ar
42    25    40    1
43    26    41    1
@<TRIPOS>SUBSTRUCTURE
1   ZINC000028890319 1     RESIDUE    1   A     ZIN   1
