@<TRIPOS>MOLECULE
ZINC000000084613
38    41    1     0     0
SMALL
USER_CHARGES
@<TRIPOS>ATOM
1      O1      0.0021   -0.0041    0.0020 O.co2    1 ZINC000000084613   -0.6700
2      C2     -0.0145    1.2150    0.0087 C.2      1 ZINC000000084613    0.5000
3      O3      1.0330    1.8389    0.0021 O.co2    1 ZINC000000084613   -0.6900
4      C4     -1.3296    1.9507    0.0190 C.3      1 ZINC000000084613    0.0800
5      H5     -1.3280    2.7089   -0.7642 H        1 ZINC000000084613    0.1000
6      C6     -1.5274    2.6229    1.3791 C.3      1 ZINC000000084613   -0.0500
7      C7     -2.7813    3.4584    1.3489 C.2      1 ZINC000000084613   -0.1600
8      C8     -2.8595    4.7715    1.0815 C.2      1 ZINC000000084613    0.0500
9      N9     -4.1626    5.1840    1.1462 N.pl3    1 ZINC000000084613   -0.6000
10     C10    -4.9754    4.1193    1.4648 C.ar     1 ZINC000000084613    0.1000
11     C11    -6.3468    3.9841    1.6530 C.ar     1 ZINC000000084613   -0.1300
12     C12    -6.8754    2.7528    1.9741 C.ar     1 ZINC000000084613   -0.1000
13     C13    -6.0528    1.6435    2.1121 C.ar     1 ZINC000000084613   -0.1500
14     C14    -4.7027    1.7537    1.9316 C.ar     1 ZINC000000084613   -0.0700
15     C15    -4.1465    2.9903    1.5996 C.ar     1 ZINC000000084613   -0.1000
16     N16    -2.4210    1.0033   -0.2209 N.am     1 ZINC000000084613   -0.5300
17     C17    -2.7012   -0.0503    0.5672 C.2      1 ZINC000000084613    0.5800
18     O18    -2.0989   -0.3620    1.5747 O.2      1 ZINC000000084613   -0.4400
19     C19    -3.8655   -0.7646    0.0023 C.ar     1 ZINC000000084613   -0.1200
20     C20    -4.5827   -1.8905    0.3724 C.ar     1 ZINC000000084613   -0.0600
21     C21    -5.6551   -2.3075   -0.4013 C.ar     1 ZINC000000084613   -0.1000
22     C22    -6.0127   -1.6078   -1.5380 C.ar     1 ZINC000000084613   -0.1100
23     C23    -5.3041   -0.4791   -1.9207 C.ar     1 ZINC000000084613   -0.0500
24     C24    -4.2303   -0.0508   -1.1575 C.ar     1 ZINC000000084613   -0.1300
25     C25    -3.2784    1.0758   -1.2550 C.2      1 ZINC000000084613    0.5700
26     O26    -3.2705    1.9239   -2.1242 O.2      1 ZINC000000084613   -0.4800
27     H27    -1.6180    1.8595    2.1519 H        1 ZINC000000084613    0.0800
28     H28    -0.6709    3.2608    1.5971 H        1 ZINC000000084613    0.0900
29     H29    -2.0184    5.4082    0.8501 H        1 ZINC000000084613    0.1700
30     H30    -4.4682    6.0914    0.9906 H        1 ZINC000000084613    0.4100
31     H31    -6.9952    4.8415    1.5482 H        1 ZINC000000084613    0.1200
32     H32    -7.9405    2.6500    2.1203 H        1 ZINC000000084613    0.1200
33     H33    -6.4831    0.6856    2.3645 H        1 ZINC000000084613    0.1200
34     H34    -4.0688    0.8861    2.0406 H        1 ZINC000000084613    0.1200
35     H35    -4.3074   -2.4414    1.2597 H        1 ZINC000000084613    0.1400
36     H36    -6.2146   -3.1853   -0.1137 H        1 ZINC000000084613    0.1400
37     H37    -6.8497   -1.9427   -2.1327 H        1 ZINC000000084613    0.1400
38     H38    -5.5882    0.0639   -2.8099 H        1 ZINC000000084613    0.1400
@<TRIPOS>BOND
1     1     2     ar
2     2     3     ar
3     2     4     1
4     4     5     1
5     4     6     1
6     4     16    1
7     6     7     1
8     6     27    1
9     6     28    1
10    7     15    1
11    7     8     2
12    8     9     1
13    8     29    1
14    9     10    1
15    9     30    1
16    10    15    ar
17    10    11    ar
18    11    12    ar
19    11    31    1
20    12    13    ar
21    12    32    1
22    13    14    ar
23    13    33    1
24    14    15    ar
25    14    34    1
26    16    25    am
27    16    17    am
28    17    18    2
29    17    19    1
30    19    24    ar
31    19    20    ar
32    20    21    ar
33    20    35    1
34    21    22    ar
35    21    36    1
36    22    23    ar
37    22    37    1
38    23    24    ar
39    23    38    1
40    24    25    1
41    25    26    2
@<TRIPOS>SUBSTRUCTURE
1   ZINC000000084613 1     RESIDUE    1   A     ZIN   1
