@<TRIPOS>MOLECULE
ZINC000000140092
19    20    1     0     0
SMALL
USER_CHARGES
@<TRIPOS>ATOM
1      O1      0.0021   -0.0041    0.0020 O.3      1 ZINC000000140092   -0.6800
2      C2     -0.0164    1.3554    0.0095 C.ar     1 ZINC000000140092    0.2700
3      C3     -1.2256    2.0346    0.0305 C.ar     1 ZINC000000140092   -0.0300
4      F4     -2.3871    1.3447    0.0435 F        1 ZINC000000140092   -0.1500
5      C5     -1.2432    3.4184    0.0385 C.ar     1 ZINC000000140092   -0.1200
6      C6     -0.0556    4.1315    0.0252 C.ar     1 ZINC000000140092   -0.0400
7      F7     -0.0809    5.4822    0.0335 F        1 ZINC000000140092   -0.1600
8      C8      1.1553    3.4650    0.0038 C.ar     1 ZINC000000140092   -0.0700
9      C9      1.1826    2.0724    0.0019 C.ar     1 ZINC000000140092   -0.1500
10     C10     2.4802    1.3530   -0.0205 C.2      1 ZINC000000140092    0.1600
11     N11     3.6735    1.9085   -0.0342 N.2      1 ZINC000000140092   -0.3200
12     N12     4.6299    0.8853   -0.0535 N.pl3    1 ZINC000000140092   -0.5000
13     C13     3.9796   -0.2981   -0.0511 C.2      1 ZINC000000140092    0.0200
14     C14     2.6529   -0.0449   -0.0248 C.2      1 ZINC000000140092   -0.2300
15     H15    -2.1863    3.9444    0.0548 H        1 ZINC000000140092    0.1200
16     H16     2.0795    4.0237   -0.0070 H        1 ZINC000000140092    0.1200
17     H17     5.5922    1.0059   -0.0669 H        1 ZINC000000140092    0.4300
18     H18     4.4394   -1.2753   -0.0636 H        1 ZINC000000140092    0.1700
19     H19     1.8646   -0.7831   -0.0163 H        1 ZINC000000140092    0.1700
@<TRIPOS>BOND
1     1     2     1
2     2     9     ar
3     2     3     ar
4     3     4     1
5     3     5     ar
6     5     6     ar
7     5     15    1
8     6     7     1
9     6     8     ar
10    8     9     ar
11    8     16    1
12    9     10    1
13    10    14    1
14    10    11    2
15    11    12    1
16    12    13    1
17    12    17    1
18    13    14    2
19    13    18    1
20    14    19    1
@<TRIPOS>SUBSTRUCTURE
1   ZINC000000140092 1     RESIDUE    1   A     ZIN   1
