@<TRIPOS>MOLECULE
ZINC000020149024
  33   36    0    0    0
SMALL
USER_CHARGES
NO_NAME
@<TRIPOS>ATOM
    1 N1       -0.4854     0.4948    -2.0855 N.pl3  1 <0>      -0.8200
    2 C2       -0.2303    -0.4427    -1.0997 C.ar   1 <0>       0.5700
    3 N3       -1.1576    -0.6881    -0.1850 N.ar   1 <0>      -0.5800
    4 C4       -0.9529    -1.5785     0.7762 C.ar   1 <0>       0.1900
    5 C5        0.2358    -2.2561     0.8254 C.ar   1 <0>      -0.2800
    6 C6        1.2051    -1.9819    -0.1524 C.ar   1 <0>       0.3000
    7 C7        2.4980    -2.6843    -0.1416 C.2    1 <0>      -0.0800
    8 C8        2.7083    -4.0542     0.0024 C.2    1 <0>       0.1300
    9 C9        1.8240    -5.1400     0.1719 C.2    1 <0>      -0.1900
   10 C10       2.3413    -6.3929     0.2859 C.2    1 <0>       0.1100
   11 N11       3.6623    -6.5874     0.2378 N.2    1 <0>      -0.5500
   12 C12       4.5075    -5.5961     0.0810 C.2    1 <0>       0.6000
   13 N13       5.8544    -5.8574     0.0390 N.pl3  1 <0>      -0.8200
   14 N14       4.0662    -4.3011    -0.0418 N.pl3  1 <0>      -0.4100
   15 C15       4.7504    -3.1258    -0.2105 C.2    1 <0>       0.2400
   16 C16       3.8300    -2.0868    -0.2866 C.2    1 <0>      -0.1600
   17 C17       4.3153    -0.7189    -0.4672 C.2    1 <0>       0.4300
   18 O18       3.5388     0.2220    -0.5384 O.2    1 <0>      -0.4700
   19 C19       5.7140    -0.5207    -0.5564 C.2    1 <0>      -0.3000
   20 C20       6.5435    -1.5824    -0.4734 C.2    1 <0>       0.1700
   21 N21       6.0868    -2.8463    -0.3125 N.pl3  1 <0>      -0.5900
   22 N22       0.9319    -1.0765    -1.0962 N.ar   1 <0>      -0.5400
   23 H23       0.1836     0.6806    -2.7629 H      1 <0>       0.4100
   24 H24      -1.3347     0.9631    -2.1013 H      1 <0>       0.4100
   25 H25      -1.7179    -1.7675     1.5148 H      1 <0>       0.1700
   26 H26       0.4238    -2.9853     1.5997 H      1 <0>       0.1400
   27 H27       0.7567    -4.9796     0.2108 H      1 <0>       0.1600
   28 H28       1.6796    -7.2364     0.4167 H      1 <0>       0.1700
   29 H29       6.1700    -6.7742     0.0123 H      1 <0>       0.4300
   30 H30       6.4906    -5.1252     0.0360 H      1 <0>       0.4000
   31 H31       6.1149     0.4732    -0.6903 H      1 <0>       0.1600
   32 H32       7.6087    -1.4181    -0.5429 H      1 <0>       0.1800
   33 H33       6.7255    -3.5743    -0.2583 H      1 <0>       0.4000
@<TRIPOS>BOND
   1    1    2 1
   2    1   23 1
   3    1   24 1
   4    2   22 ar
   5    2    3 ar
   6    3    4 ar
   7    4    5 ar
   8    4   25 1
   9    5    6 ar
  10    5   26 1
  11    6    7 1
  12    6   22 ar
  13    7   16 1
  14    7    8 2
  15    8   14 1
  16    8    9 1
  17    9   10 2
  18    9   27 1
  19   10   11 1
  20   10   28 1
  21   11   12 2
  22   12   13 1
  23   12   14 1
  24   13   29 1
  25   13   30 1
  26   14   15 1
  27   15   21 1
  28   15   16 2
  29   16   17 1
  30   17   18 2
  31   17   19 1
  32   19   20 2
  33   19   31 1
  34   20   21 1
  35   20   32 1
  36   21   33 1
