@<TRIPOS>MOLECULE
ZINC000003955298
80    83    1     0     0
SMALL
USER_CHARGES
@<TRIPOS>ATOM
1      C1     -1.2862    0.5320   -0.6256 C.3      1 ZINC000003955298   -0.1600
2      C2      0.0021   -0.0041    0.0020 C.3      1 ZINC000003955298    0.1800
3      H3      0.6550    0.8298    0.2597 H        1 ZINC000003955298    0.1000
4      N4      0.6833   -0.8802   -0.9543 N.am     1 ZINC000003955298   -0.7100
5      C5      2.0205   -1.0365   -0.8908 C.2      1 ZINC000003955298    0.5100
6      O6      2.6598   -0.4519   -0.0421 O.2      1 ZINC000003955298   -0.5200
7      C7      2.7213   -1.9378   -1.8745 C.3      1 ZINC000003955298    0.1300
8      H8      2.5463   -1.5757   -2.8876 H        1 ZINC000003955298    0.1200
9      C9      2.1760   -3.3610   -1.7403 C.3      1 ZINC000003955298   -0.1300
10     C10     2.7961   -4.2488   -2.8211 C.3      1 ZINC000003955298   -0.1300
11     C11     2.2508   -5.6720   -2.6869 C.3      1 ZINC000003955298    0.0900
12     N12     2.8446   -6.5221   -3.7218 N.pl3    1 ZINC000003955298   -0.6900
13     C13     2.5043   -7.8447   -3.7989 C.cat    1 ZINC000003955298    0.7400
14     N14     1.6330   -8.3597   -2.9330 N.pl3    1 ZINC000003955298   -0.7900
15     N15     3.0441   -8.6176   -4.7398 N.pl3    1 ZINC000003955298   -0.7900
16     H16     2.8028   -9.5555   -4.7944 H        1 ZINC000003955298    0.4400
17     H17     3.6786   -8.2425   -5.3704 H        1 ZINC000003955298    0.4400
18     N18     4.1599   -1.9379   -1.5977 N.am     1 ZINC000003955298   -0.7000
19     C19     5.0353   -2.2276   -2.5806 C.2      1 ZINC000003955298    0.5600
20     O20     4.6312   -2.4888   -3.6968 O.2      1 ZINC000003955298   -0.5300
21     C21     6.4871   -2.2277   -2.3012 C.ar     1 ZINC000003955298   -0.1000
22     C22     6.9542   -1.9339   -1.0192 C.ar     1 ZINC000003955298   -0.0800
23     C23     8.3101   -1.9361   -0.7650 C.ar     1 ZINC000003955298   -0.0900
24     C24     9.2064   -2.2284   -1.7778 C.ar     1 ZINC000003955298   -0.1400
25     C25    10.6862   -2.2285   -1.4930 C.3      1 ZINC000003955298    0.0400
26     N26    11.1032   -3.5718   -1.0693 N.4      1 ZINC000003955298   -0.5100
27     H27    10.6001   -3.8326   -0.2345 H        1 ZINC000003955298    0.4300
28     H28    10.9020   -4.2338   -1.8038 H        1 ZINC000003955298    0.4300
29     C29    12.5458   -3.5720   -0.7917 C.3      1 ZINC000003955298    0.0600
30     C30    12.9736   -4.9501   -0.3571 C.ar     1 ZINC000003955298    0.0400
31     C31    13.4906   -5.8301   -1.2886 C.ar     1 ZINC000003955298   -0.1400
32     C32    13.8817   -7.0957   -0.8782 C.ar     1 ZINC000003955298   -0.0700
33     C33    13.7373   -7.4295    0.4595 C.ar     1 ZINC000003955298   -0.1300
34     C34    13.2120   -6.4965    1.3336 C.ar     1 ZINC000003955298    0.1100
35     N35    12.8552   -5.3003    0.9089 N.ar     1 ZINC000003955298   -0.4700
36     C36     8.7500   -2.5210   -3.0507 C.ar     1 ZINC000003955298   -0.1000
37     C37     7.3963   -2.5273   -3.3170 C.ar     1 ZINC000003955298   -0.0600
38     C38    -0.3325   -0.7837    1.2475 C.ar     1 ZINC000003955298   -0.0800
39     C39    -0.5620   -0.1126    2.4604 C.ar     1 ZINC000003955298   -0.0400
40     C40    -0.4873    1.2884    2.5449 C.ar     1 ZINC000003955298   -0.1100
41     C41    -0.7162    1.9041    3.7367 C.ar     1 ZINC000003955298   -0.1100
42     C42    -1.0237    1.1662    4.8785 C.ar     1 ZINC000003955298   -0.1100
43     C43    -1.1042   -0.1916    4.8347 C.ar     1 ZINC000003955298   -0.1100
44     C44    -0.8753   -0.8630    3.6214 C.ar     1 ZINC000003955298   -0.0500
45     C45    -0.9500   -2.2634    3.5370 C.ar     1 ZINC000003955298   -0.1000
46     C46    -0.7224   -2.8794    2.3445 C.ar     1 ZINC000003955298   -0.1200
47     C47    -0.4194   -2.1414    1.2022 C.ar     1 ZINC000003955298   -0.1100
48     H48    -1.0442    1.0958   -1.5265 H        1 ZINC000003955298    0.0700
49     H49    -1.9391   -0.3019   -0.8833 H        1 ZINC000003955298    0.0700
50     H50    -1.7931    1.1839    0.0859 H        1 ZINC000003955298    0.0800
51     H51     0.1720   -1.3479   -1.6331 H        1 ZINC000003955298    0.4000
52     H52     2.4292   -3.7559   -0.7564 H        1 ZINC000003955298    0.0800
53     H53     1.0925   -3.3477   -1.8586 H        1 ZINC000003955298    0.0900
54     H54     2.5429   -3.8540   -3.8050 H        1 ZINC000003955298    0.0900
55     H55     3.8796   -4.2622   -2.7028 H        1 ZINC000003955298    0.0800
56     H56     2.5041   -6.0669   -1.7030 H        1 ZINC000003955298    0.0900
57     H57     1.1674   -5.6587   -2.8052 H        1 ZINC000003955298    0.0900
58     H58     3.4791   -6.1470   -4.3524 H        1 ZINC000003955298    0.4400
59     H59     1.2399   -7.7969   -2.2478 H        1 ZINC000003955298    0.4400
60     H60     1.3917   -9.2976   -2.9876 H        1 ZINC000003955298    0.4400
61     H61     4.4824   -1.7295   -0.7069 H        1 ZINC000003955298    0.4100
62     H62     6.2556   -1.7049   -0.2280 H        1 ZINC000003955298    0.1400
63     H63     8.6729   -1.7090    0.2265 H        1 ZINC000003955298    0.1400
64     H64    11.2298   -1.9469   -2.3948 H        1 ZINC000003955298    0.1500
65     H65    10.9036   -1.5135   -0.6995 H        1 ZINC000003955298    0.1500
66     H66    13.0894   -3.2903   -1.6936 H        1 ZINC000003955298    0.1500
67     H67    12.7631   -2.8569    0.0017 H        1 ZINC000003955298    0.1500
68     H68    13.5885   -5.5361   -2.3232 H        1 ZINC000003955298    0.1500
69     H69    14.2888   -7.8045   -1.5841 H        1 ZINC000003955298    0.1500
70     H70    14.0312   -8.4064    0.8141 H        1 ZINC000003955298    0.1500
71     H71    13.0959   -6.7489    2.3773 H        1 ZINC000003955298    0.1700
72     H72     9.4548   -2.7486   -3.8368 H        1 ZINC000003955298    0.1400
73     H73     7.0413   -2.7562   -4.3109 H        1 ZINC000003955298    0.1500
74     H74    -0.2493    1.8731    1.6687 H        1 ZINC000003955298    0.1300
75     H75    -0.6582    2.9808    3.7989 H        1 ZINC000003955298    0.1300
76     H76    -1.2005    1.6797    5.8120 H        1 ZINC000003955298    0.1300
77     H77    -1.3428   -0.7503    5.7277 H        1 ZINC000003955298    0.1300
78     H78    -1.1864   -2.8483    4.4136 H        1 ZINC000003955298    0.1300
79     H79    -0.7802   -3.9561    2.2824 H        1 ZINC000003955298    0.1200
80     H80    -0.2436   -2.6548    0.2684 H        1 ZINC000003955298    0.1100
@<TRIPOS>BOND
1     1     2     1
2     1     48    1
3     1     49    1
4     1     50    1
5     2     3     1
6     2     4     1
7     2     38    1
8     4     5     am
9     4     51    1
10    5     6     2
11    5     7     1
12    7     8     1
13    7     9     1
14    7     18    1
15    9     10    1
16    9     52    1
17    9     53    1
18    10    11    1
19    10    54    1
20    10    55    1
21    11    12    1
22    11    56    1
23    11    57    1
24    12    13    ar
25    12    58    1
26    13    14    ar
27    13    15    ar
28    14    59    1
29    14    60    1
30    15    16    1
31    15    17    1
32    18    19    am
33    18    61    1
34    19    20    2
35    19    21    1
36    21    37    ar
37    21    22    ar
38    22    23    ar
39    22    62    1
40    23    24    ar
41    23    63    1
42    24    25    1
43    24    36    ar
44    25    26    1
45    25    64    1
46    25    65    1
47    26    27    1
48    26    28    1
49    26    29    1
50    29    30    1
51    29    66    1
52    29    67    1
53    30    35    ar
54    30    31    ar
55    31    32    ar
56    31    68    1
57    32    33    ar
58    32    69    1
59    33    34    ar
60    33    70    1
61    34    35    ar
62    34    71    1
63    36    37    ar
64    36    72    1
65    37    73    1
66    38    47    ar
67    38    39    ar
68    39    44    ar
69    39    40    ar
70    40    41    ar
71    40    74    1
72    41    42    ar
73    41    75    1
74    42    43    ar
75    42    76    1
76    43    44    ar
77    43    77    1
78    44    45    ar
79    45    46    ar
80    45    78    1
81    46    47    ar
82    46    79    1
83    47    80    1
@<TRIPOS>SUBSTRUCTURE
1   ZINC000003955298 1     RESIDUE    1   A     ZIN   1
