@<TRIPOS>MOLECULE
ZINC000001530877
38    40    1     0     0
SMALL
USER_CHARGES
@<TRIPOS>ATOM
1      O1     -3.7329    7.9419   -1.7667 O.co2    1 ZINC000001530877   -0.6800
2      C2     -3.4478    6.8630   -2.2666 C.2      1 ZINC000001530877    0.5400
3      O3     -3.0768    6.8075   -3.4304 O.co2    1 ZINC000001530877   -0.6800
4      C4     -3.5458    5.6279   -1.4631 C.ar     1 ZINC000001530877   -0.0500
5      C5     -4.7606    4.9545   -1.3584 C.ar     1 ZINC000001530877   -0.1200
6      C6     -4.8470    3.7983   -0.6052 C.ar     1 ZINC000001530877   -0.1000
7      C7     -3.7326    3.3032    0.0475 C.ar     1 ZINC000001530877   -0.1500
8      C8     -2.5180    3.9584   -0.0450 C.ar     1 ZINC000001530877   -0.0900
9      C9     -2.4102    5.1203   -0.8025 C.ar     1 ZINC000001530877   -0.1300
10     C10    -1.1129    5.8244   -0.9048 C.2      1 ZINC000001530877    0.5400
11     O11    -1.0444    6.8911   -1.4834 O.2      1 ZINC000001530877   -0.4600
12     N12    -0.0072    5.2830   -0.3564 N.am     1 ZINC000001530877   -0.6800
13     C13     1.1953    5.9965   -0.3583 C.ar     1 ZINC000001530877    0.2000
14     C14     2.4045    5.3222   -0.4697 C.ar     1 ZINC000001530877   -0.1800
15     C15     3.5904    6.0299   -0.4718 C.ar     1 ZINC000001530877    0.0000
16     C16     3.5749    7.4084   -0.3631 C.ar     1 ZINC000001530877   -0.6500
17     S17     5.0902    8.3076   -0.3661 S.o2     1 ZINC000001530877    2.6500
18     O18     4.8267    9.5402    0.2899 O.2      1 ZINC000001530877   -1.0100
19     O19     6.0964    7.3996    0.0607 O.2      1 ZINC000001530877   -1.0200
20     N20     5.4354    8.6811   -1.9421 N.pl3    1 ZINC000001530877   -1.0500
21     C21     6.5831    9.3948   -2.2498 C.2      1 ZINC000001530877    0.4000
22     N22     7.4534    9.8117   -1.3834 N.2      1 ZINC000001530877   -0.6300
23     C23     8.4922   10.4788   -1.8540 C.2      1 ZINC000001530877    0.1000
24     C24     8.4990   10.6321   -3.1784 C.2      1 ZINC000001530877   -0.3700
25     S25     7.0615    9.8474   -3.8275 S.3      1 ZINC000001530877    0.0300
26     C26     2.3727    8.0829   -0.2525 C.ar     1 ZINC000001530877    0.0000
27     C27     1.1830    7.3815   -0.2546 C.ar     1 ZINC000001530877   -0.1500
28     H28    -5.6349    5.3356   -1.8651 H        1 ZINC000001530877    0.1200
29     H29    -5.7905    3.2787   -0.5258 H        1 ZINC000001530877    0.1200
30     H30    -3.8114    2.3994    0.6335 H        1 ZINC000001530877    0.1200
31     H31    -1.6522    3.5658    0.4675 H        1 ZINC000001530877    0.1200
32     H32    -0.0456    4.3984    0.0396 H        1 ZINC000001530877    0.4000
33     H33     2.4174    4.2456   -0.5543 H        1 ZINC000001530877    0.1300
34     H34     4.5310    5.5062   -0.5580 H        1 ZINC000001530877    0.1400
35     H35     9.2725   10.8688   -1.2173 H        1 ZINC000001530877    0.1500
36     H36     9.2561   11.1445   -3.7535 H        1 ZINC000001530877    0.1500
37     H37     2.3640    9.1595   -0.1678 H        1 ZINC000001530877    0.1400
38     H38     0.2444    7.9089   -0.1686 H        1 ZINC000001530877    0.1400
@<TRIPOS>BOND
1     1     2     ar
2     2     3     ar
3     2     4     1
4     4     9     ar
5     4     5     ar
6     5     6     ar
7     5     28    1
8     6     7     ar
9     6     29    1
10    7     8     ar
11    7     30    1
12    8     9     ar
13    8     31    1
14    9     10    1
15    10    11    2
16    10    12    am
17    12    13    1
18    12    32    1
19    13    27    ar
20    13    14    ar
21    14    15    ar
22    14    33    1
23    15    16    ar
24    15    34    1
25    16    17    1
26    16    26    ar
27    17    18    2
28    17    19    2
29    17    20    1
30    20    21    1
31    21    25    1
32    21    22    2
33    22    23    1
34    23    24    2
35    23    35    1
36    24    25    1
37    24    36    1
38    26    27    ar
39    26    37    1
40    27    38    1
@<TRIPOS>SUBSTRUCTURE
1   ZINC000001530877 1     RESIDUE    1   A     ZIN   1
