@<TRIPOS>MOLECULE
ZINC000014945866
  38   41    0    0    0
SMALL
USER_CHARGES
NO_NAME
@<TRIPOS>ATOM
    1 C1       -0.0187     1.5258     0.0104 C.3    1 <0>      -0.1500
    2 C2        0.0021    -0.0041     0.0020 C.3    1 <0>       0.0500
    3 O3        0.6932    -0.4774     1.1597 O.3    1 <0>      -0.3000
    4 C4        0.8020    -1.8246     1.3057 C.ar   1 <0>       0.0800
    5 C5        1.4597    -2.3697     2.4161 C.ar   1 <0>       0.0200
    6 C6        2.0519    -1.4985     3.4579 C.ar   1 <0>      -0.0500
    7 C7        3.4328    -1.4778     3.6511 C.ar   1 <0>      -0.1000
    8 C8        3.9786    -0.6639     4.6226 C.ar   1 <0>      -0.1200
    9 C9        3.1588     0.1304     5.4041 C.ar   1 <0>      -0.1100
   10 C10       1.7881     0.1138     5.2175 C.ar   1 <0>      -0.1200
   11 C11       1.2312    -0.6916     4.2452 C.ar   1 <0>      -0.0900
   12 C12       1.5389    -3.7667     2.5099 C.ar   1 <0>      -0.1200
   13 C13       0.9683    -4.5632     1.5083 C.ar   1 <0>       0.2600
   14 N14       0.3581    -3.9900     0.4793 N.ar   1 <0>      -0.4400
   15 C15       0.2590    -2.6819     0.3610 C.ar   1 <0>       0.0700
   16 O16       1.1768    -5.8601     1.8266 O.3    1 <0>      -0.1800
   17 C17       1.8571    -5.9842     2.9884 C.ar   1 <0>       0.0900
   18 C18       2.1249    -4.7007     3.4857 C.ar   1 <0>      -0.1000
   19 C19       2.8201    -4.5425     4.6808 C.ar   1 <0>      -0.0800
   20 C20       3.2472    -5.6582     5.3782 C.ar   1 <0>       0.0900
   21 O21       3.9270    -5.5103     6.5465 O.3    1 <0>      -0.4900
   22 C22       2.9813    -6.9306     4.8852 C.ar   1 <0>      -0.1000
   23 C23       2.2937    -7.0940     3.7015 C.ar   1 <0>      -0.0900
   24 H24       1.0039     1.9031     0.0027 H      1 <0>       0.0700
   25 H25      -0.5459     1.8868    -0.8726 H      1 <0>       0.0800
   26 H26      -0.5289     1.8773     0.9072 H      1 <0>       0.0700
   27 H27      -1.0205    -0.3814     0.0098 H      1 <0>       0.0700
   28 H28       0.5123    -0.3556    -0.8948 H      1 <0>       0.0700
   29 H29       4.0738    -2.0977     3.0418 H      1 <0>       0.1200
   30 H30       5.0479    -0.6473     4.7734 H      1 <0>       0.1300
   31 H31       3.5905     0.7658     6.1633 H      1 <0>       0.1200
   32 H32       1.1531     0.7358     5.8308 H      1 <0>       0.1300
   33 H33       0.1610    -0.7035     4.1001 H      1 <0>       0.1200
   34 H34      -0.2489    -2.2672    -0.4971 H      1 <0>       0.1800
   35 H35       3.0256    -3.5531     5.0619 H      1 <0>       0.1400
   36 H36       3.3609    -5.4811     7.3300 H      1 <0>       0.3900
   37 H37       3.3170    -7.7983     5.4336 H      1 <0>       0.1500
   38 H38       2.0925    -8.0872     3.3282 H      1 <0>       0.1500
@<TRIPOS>BOND
   1    1    2 1
   2    1   24 1
   3    1   25 1
   4    1   26 1
   5    2    3 1
   6    2   27 1
   7    2   28 1
   8    3    4 1
   9    4   15 ar
  10    4    5 ar
  11    5    6 1
  12    5   12 ar
  13    6   11 ar
  14    6    7 ar
  15    7    8 ar
  16    7   29 1
  17    8    9 ar
  18    8   30 1
  19    9   10 ar
  20    9   31 1
  21   10   11 ar
  22   10   32 1
  23   11   33 1
  24   12   18 1
  25   12   13 ar
  26   13   14 ar
  27   13   16 1
  28   14   15 ar
  29   15   34 1
  30   16   17 1
  31   17   23 ar
  32   17   18 ar
  33   18   19 ar
  34   19   20 ar
  35   19   35 1
  36   20   21 1
  37   20   22 ar
  38   21   36 1
  39   22   23 ar
  40   22   37 1
  41   23   38 1
