@<TRIPOS>MOLECULE
ZINC000008612224
  40   42    0    0    0
SMALL
USER_CHARGES
NO_NAME
@<TRIPOS>ATOM
    1 C1       -0.3231     1.0593     0.7369 C.3    1 <0>      -0.1500
    2 C2       -0.1489    -0.4294     0.4294 C.3    1 <0>      -0.5900
    3 S3        0.7096    -1.2354     1.8092 S.o2   1 <0>       2.4900
    4 O4        2.0566    -0.7896     1.8871 O.2    1 <0>      -0.8800
    5 O5       -0.1198    -1.2664     2.9627 O.2    1 <0>      -0.9100
    6 C6        0.8381    -2.9235     1.3211 C.2    1 <0>      -0.4800
    7 C7        1.7648    -3.4476     0.4988 C.2    1 <0>      -0.4400
    8 S8        3.0728    -2.5660    -0.2865 S.o2   1 <0>       2.5900
    9 O9        3.3938    -3.2908    -1.4658 O.2    1 <0>      -0.9000
   10 O10       2.6862    -1.1986    -0.2956 O.2    1 <0>      -0.9100
   11 C11       4.4820    -2.6776     0.7652 C.ar   1 <0>      -0.6600
   12 C12       4.7738    -1.6490     1.6414 C.ar   1 <0>       0.0000
   13 C13       5.8794    -1.7365     2.4666 C.ar   1 <0>      -0.1500
   14 C14       6.6930    -2.8529     2.4158 C.ar   1 <0>      -0.0500
   15 C15       6.4008    -3.8819     1.5403 C.ar   1 <0>      -0.1500
   16 C16       5.2927    -3.7963     0.7182 C.ar   1 <0>      -0.0200
   17 N17       1.5160    -4.7611     0.3828 N.2    1 <0>      -0.4100
   18 C18       0.4641    -5.0546     1.1106 C.2    1 <0>       0.2800
   19 C19      -0.1376    -6.3967     1.2558 C.ar   1 <0>      -0.0600
   20 C20      -1.2646    -6.5757     2.0600 C.ar   1 <0>      -0.0500
   21 C21      -1.8223    -7.8300     2.1916 C.ar   1 <0>      -0.1500
   22 C22      -1.2659    -8.9118     1.5274 C.ar   1 <0>       0.1400
   23 F23      -1.8162   -10.1385     1.6598 F      1 <0>      -0.1300
   24 C24      -0.1473    -8.7395     0.7274 C.ar   1 <0>      -0.1600
   25 C25       0.4155    -7.4887     0.5849 C.ar   1 <0>      -0.0300
   26 O26       0.0297    -3.9308     1.7069 O.3    1 <0>      -0.1200
   27 H27       0.6557     1.5189     0.8741 H      1 <0>       0.0800
   28 H28      -0.8390     1.5436    -0.0922 H      1 <0>       0.0900
   29 H29      -0.9101     1.1758     1.6479 H      1 <0>       0.0700
   30 H30      -1.1277    -0.8890     0.2923 H      1 <0>       0.1400
   31 H31       0.4381    -0.5459    -0.4816 H      1 <0>       0.1600
   32 H32       4.1381    -0.7768     1.6811 H      1 <0>       0.1700
   33 H33       6.1077    -0.9326     3.1506 H      1 <0>       0.1400
   34 H34       7.5572    -2.9210     3.0600 H      1 <0>       0.1300
   35 H35       7.0366    -4.7540     1.5004 H      1 <0>       0.1400
   36 H36       5.0644    -4.6003     0.0342 H      1 <0>       0.1400
   37 H37      -1.6987    -5.7335     2.5783 H      1 <0>       0.1500
   38 H38      -2.6940    -7.9698     2.8138 H      1 <0>       0.1500
   39 H39       0.2821    -9.5857     0.2117 H      1 <0>       0.1500
   40 H40       1.2870    -7.3555    -0.0390 H      1 <0>       0.1500
@<TRIPOS>BOND
   1    1    2 1
   2    1   27 1
   3    1   28 1
   4    1   29 1
   5    2    3 1
   6    2   30 1
   7    2   31 1
   8    3    4 2
   9    3    5 2
  10    3    6 1
  11    6   26 1
  12    6    7 2
  13    7    8 1
  14    7   17 1
  15    8    9 2
  16    8   10 2
  17    8   11 1
  18   11   16 ar
  19   11   12 ar
  20   12   13 ar
  21   12   32 1
  22   13   14 ar
  23   13   33 1
  24   14   15 ar
  25   14   34 1
  26   15   16 ar
  27   15   35 1
  28   16   36 1
  29   17   18 2
  30   18   19 1
  31   18   26 1
  32   19   25 ar
  33   19   20 ar
  34   20   21 ar
  35   20   37 1
  36   21   22 ar
  37   21   38 1
  38   22   23 1
  39   22   24 ar
  40   24   25 ar
  41   24   39 1
  42   25   40 1
