@<TRIPOS>MOLECULE
ZINC000000057659
29    31    1     0     0
SMALL
USER_CHARGES
@<TRIPOS>ATOM
1      O1      0.0021   -0.0041    0.0020 O.2      1 ZINC000000057659   -0.4700
2      C2     -0.0145    1.2158    0.0087 C.2      1 ZINC000000057659    0.4200
3      C3     -1.2314    1.9338    0.0302 C.2      1 ZINC000000057659   -0.3100
4      C4     -1.2073    3.2953    0.0375 C.2      1 ZINC000000057659    0.2100
5      C5     -2.4876    4.0270    0.0604 C.ar     1 ZINC000000057659   -0.0700
6      C6     -3.6954    3.3247    0.0800 C.ar     1 ZINC000000057659   -0.0700
7      C7     -4.8910    4.0103    0.1013 C.ar     1 ZINC000000057659   -0.1300
8      C8     -4.8988    5.3981    0.1035 C.ar     1 ZINC000000057659    0.1100
9      O9     -6.0798    6.0690    0.1246 O.3      1 ZINC000000057659   -0.4800
10     C10    -3.6974    6.1055    0.0846 C.ar     1 ZINC000000057659    0.0800
11     O11    -3.7089    7.4654    0.0877 O.3      1 ZINC000000057659   -0.4800
12     C12    -2.4956    5.4252    0.0685 C.ar     1 ZINC000000057659   -0.0900
13     O13    -0.0634    3.9968    0.0251 O.3      1 ZINC000000057659   -0.2200
14     C14     1.1476    3.4016    0.0045 C.ar     1 ZINC000000057659    0.1500
15     C15     2.3128    4.1578   -0.0074 C.ar     1 ZINC000000057659   -0.1400
16     C16     3.5404    3.5297   -0.0281 C.ar     1 ZINC000000057659   -0.0600
17     C17     3.6270    2.1456   -0.0372 C.ar     1 ZINC000000057659   -0.1500
18     C18     2.4826    1.3775   -0.0256 C.ar     1 ZINC000000057659   -0.0300
19     C19     1.2365    2.0005    0.0010 C.ar     1 ZINC000000057659   -0.2200
20     H20    -2.1739    1.4065    0.0403 H        1 ZINC000000057659    0.1600
21     H21    -3.6921    2.2447    0.0780 H        1 ZINC000000057659    0.1500
22     H22    -5.8238    3.4663    0.1161 H        1 ZINC000000057659    0.1500
23     H23    -6.4068    6.2619    1.0140 H        1 ZINC000000057659    0.3900
24     H24    -3.6972    7.8568    0.9718 H        1 ZINC000000057659    0.3900
25     H25    -1.5643    5.9718    0.0538 H        1 ZINC000000057659    0.1500
26     H26     2.2574    5.2363   -0.0009 H        1 ZINC000000057659    0.1400
27     H27     4.4436    4.1217   -0.0377 H        1 ZINC000000057659    0.1400
28     H28     4.5952    1.6676   -0.0538 H        1 ZINC000000057659    0.1400
29     H29     2.5513    0.2997   -0.0331 H        1 ZINC000000057659    0.1400
@<TRIPOS>BOND
1     1     2     2
2     2     19    1
3     2     3     1
4     3     4     2
5     3     20    1
6     4     5     1
7     4     13    1
8     5     12    ar
9     5     6     ar
10    6     7     ar
11    6     21    1
12    7     8     ar
13    7     22    1
14    8     9     1
15    8     10    ar
16    9     23    1
17    10    11    1
18    10    12    ar
19    11    24    1
20    12    25    1
21    13    14    1
22    14    19    ar
23    14    15    ar
24    15    16    ar
25    15    26    1
26    16    17    ar
27    16    27    1
28    17    18    ar
29    17    28    1
30    18    19    ar
31    18    29    1
@<TRIPOS>SUBSTRUCTURE
1   ZINC000000057659 1     RESIDUE    1   A     ZIN   1
