@<TRIPOS>MOLECULE
ZINC000043067855
72    77    1     0     0
SMALL
USER_CHARGES
@<TRIPOS>ATOM
1      C1      0.9677    1.1727   -0.7442 C.3      1 ZINC000043067855    0.0500
2      O2      0.4665   -0.1327   -0.3529 O.3      1 ZINC000043067855   -0.3600
3      C3      1.0896   -0.7446    0.6719 C.2      1 ZINC000043067855    0.6500
4      O4      2.0265   -0.2026    1.2241 O.2      1 ZINC000043067855   -0.5500
5      N5      0.6742   -1.9583    1.0852 N.am     1 ZINC000043067855   -0.6500
6      C6      1.3792   -2.6355    2.0833 C.ar     1 ZINC000043067855    0.1900
7      C7      1.9668   -1.9234    3.1227 C.ar     1 ZINC000043067855   -0.1300
8      C8      2.6624   -2.5890    4.1086 C.ar     1 ZINC000043067855   -0.0400
9      C9      2.7767   -3.9786    4.0631 C.ar     1 ZINC000043067855   -0.0800
10     C10     3.5236   -4.6968    5.1219 C.ar     1 ZINC000043067855    0.4600
11     N11     3.6214   -6.0212    5.0509 N.ar     1 ZINC000043067855   -0.5700
12     C12     4.2797   -6.7104    5.9737 C.ar     1 ZINC000043067855    0.4600
13     N13     4.3770   -8.0858    5.8923 N.3      1 ZINC000043067855   -0.4700
14     C14     5.7830   -8.5155    5.8950 C.3      1 ZINC000043067855    0.0200
15     C15     5.8436  -10.0450    5.8640 C.3      1 ZINC000043067855    0.0600
16     O16     5.1338  -10.5220    4.7176 O.3      1 ZINC000043067855   -0.3800
17     C17     3.7610  -10.1225    4.6831 C.3      1 ZINC000043067855    0.0600
18     C18     3.6793   -8.5938    4.7022 C.3      1 ZINC000043067855    0.0300
19     C19     4.8778   -6.0074    7.0389 C.ar     1 ZINC000043067855   -0.3000
20     C20     5.6341   -6.3802    8.1705 C.2      1 ZINC000043067855    0.1300
21     N21     5.9394   -5.3031    8.8367 N.2      1 ZINC000043067855   -0.2600
22     N22     5.4084   -4.1806    8.1889 N.pl3    1 ZINC000043067855   -0.3900
23     C23     5.5396   -2.7908    8.6331 C.3      1 ZINC000043067855    0.1700
24     C24     4.9263   -2.6390   10.0281 C.3      1 ZINC000043067855   -0.1600
25     C25     5.1372   -1.2050   10.5188 C.3      1 ZINC000043067855    0.0000
26     N26     6.5740   -0.9113   10.5798 N.4      1 ZINC000043067855   -0.3800
27     H27     7.0287   -1.5843   11.1785 H        1 ZINC000043067855    0.4200
28     C28     6.7737    0.4388   11.1232 C.3      1 ZINC000043067855    0.0500
29     C29     8.2385    0.7892   11.0723 C.ar     1 ZINC000043067855   -0.2200
30     C30     9.0703    0.4856   12.1389 C.ar     1 ZINC000043067855   -0.0500
31     C31    10.4114    0.8263   12.0479 C.ar     1 ZINC000043067855   -0.1600
32     C32    10.8709    1.4527   10.9051 C.ar     1 ZINC000043067855    0.1400
33     N33    10.0505    1.7263    9.9094 N.ar     1 ZINC000043067855   -0.4700
34     C34     8.7708    1.4123    9.9592 C.ar     1 ZINC000043067855    0.1300
35     C35     7.1550   -0.9847    9.2339 C.3      1 ZINC000043067855   -0.0100
36     C36     7.0217   -2.4102    8.6937 C.3      1 ZINC000043067855   -0.1500
37     C37     4.7482   -4.6043    7.0733 C.ar     1 ZINC000043067855    0.3700
38     N38     4.0736   -3.9963    6.1012 N.ar     1 ZINC000043067855   -0.5600
39     C39     2.1861   -4.6908    3.0190 C.ar     1 ZINC000043067855   -0.0400
40     C40     1.4871   -4.0208    2.0384 C.ar     1 ZINC000043067855   -0.1500
41     H41     2.0114    1.0856   -1.0460 H        1 ZINC000043067855    0.0700
42     H42     0.3786    1.5527   -1.5789 H        1 ZINC000043067855    0.1100
43     H43     0.8892    1.8596    0.0985 H        1 ZINC000043067855    0.0700
44     H44    -0.1144   -2.3616    0.6897 H        1 ZINC000043067855    0.4200
45     H45     1.8784   -0.8476    3.1573 H        1 ZINC000043067855    0.1500
46     H46     3.1190   -2.0353    4.9157 H        1 ZINC000043067855    0.1400
47     H47     6.2882   -8.1134    5.0169 H        1 ZINC000043067855    0.0700
48     H48     6.2735   -8.1501    6.7972 H        1 ZINC000043067855    0.1000
49     H49     6.8834  -10.3670    5.8082 H        1 ZINC000043067855    0.1100
50     H50     5.3858  -10.4458    6.7683 H        1 ZINC000043067855    0.0700
51     H51     3.2947  -10.5006    3.7733 H        1 ZINC000043067855    0.1100
52     H52     3.2427  -10.5256    5.5531 H        1 ZINC000043067855    0.0600
53     H53     2.6343   -8.2856    4.7337 H        1 ZINC000043067855    0.1000
54     H54     4.1509   -8.1929    3.8050 H        1 ZINC000043067855    0.0700
55     H55     5.9123   -7.3885    8.4393 H        1 ZINC000043067855    0.2000
56     H56     5.0230   -2.1341    7.9331 H        1 ZINC000043067855    0.1200
57     H57     3.8588   -2.8545    9.9818 H        1 ZINC000043067855    0.1200
58     H58     5.4090   -3.3336   10.7155 H        1 ZINC000043067855    0.1000
59     H59     4.6539   -0.5113    9.8309 H        1 ZINC000043067855    0.1400
60     H60     4.7015   -1.0935   11.5117 H        1 ZINC000043067855    0.1400
61     H61     6.2076    1.1567   10.5296 H        1 ZINC000043067855    0.1400
62     H62     6.4285    0.4693   12.1566 H        1 ZINC000043067855    0.1400
63     H63     8.6829   -0.0043   13.0201 H        1 ZINC000043067855    0.1500
64     H64    11.0881    0.6052   12.8600 H        1 ZINC000043067855    0.1500
65     H65    11.9140    1.7216   10.8265 H        1 ZINC000043067855    0.1700
66     H66     8.1295    1.6524    9.1241 H        1 ZINC000043067855    0.1600
67     H67     6.6287   -0.2957    8.5734 H        1 ZINC000043067855    0.1400
68     H68     8.2090   -0.7105    9.2781 H        1 ZINC000043067855    0.1400
69     H69     7.5479   -3.1001    9.3534 H        1 ZINC000043067855    0.1000
70     H70     7.4520   -2.4622    7.6936 H        1 ZINC000043067855    0.1200
71     H71     2.2732   -5.7666    2.9815 H        1 ZINC000043067855    0.1400
72     H72     1.0294   -4.5718    1.2301 H        1 ZINC000043067855    0.1400
@<TRIPOS>BOND
1     1     2     1
2     1     41    1
3     1     42    1
4     1     43    1
5     2     3     1
6     3     4     2
7     3     5     am
8     5     6     1
9     5     44    1
10    6     40    ar
11    6     7     ar
12    7     8     ar
13    7     45    1
14    8     9     ar
15    8     46    1
16    9     10    1
17    9     39    ar
18    10    38    ar
19    10    11    ar
20    11    12    ar
21    12    13    1
22    12    19    ar
23    13    18    1
24    13    14    1
25    14    15    1
26    14    47    1
27    14    48    1
28    15    16    1
29    15    49    1
30    15    50    1
31    16    17    1
32    17    18    1
33    17    51    1
34    17    52    1
35    18    53    1
36    18    54    1
37    19    37    ar
38    19    20    1
39    20    21    2
40    20    55    1
41    21    22    1
42    22    23    1
43    22    37    1
44    23    36    1
45    23    24    1
46    23    56    1
47    24    25    1
48    24    57    1
49    24    58    1
50    25    26    1
51    25    59    1
52    25    60    1
53    26    27    1
54    26    28    1
55    26    35    1
56    28    29    1
57    28    61    1
58    28    62    1
59    29    34    ar
60    29    30    ar
61    30    31    ar
62    30    63    1
63    31    32    ar
64    31    64    1
65    32    33    ar
66    32    65    1
67    33    34    ar
68    34    66    1
69    35    36    1
70    35    67    1
71    35    68    1
72    36    69    1
73    36    70    1
74    37    38    ar
75    39    40    ar
76    39    71    1
77    40    72    1
@<TRIPOS>SUBSTRUCTURE
1   ZINC000043067855 1     RESIDUE    1   A     ZIN   1
