@<TRIPOS>MOLECULE
ZINC000049808557
  42   46    0    0    0
SMALL
USER_CHARGES
NO_NAME
@<TRIPOS>ATOM
    1 C1       -0.0178     1.4608     0.0101 C.3    1 <0>       0.0800
    2 N2        0.0021    -0.0041     0.0020 N.pl3  1 <0>      -0.4800
    3 C3        0.0079    -0.7766    -1.1198 C.2    1 <0>       0.1000
    4 C4        0.0272    -2.0907    -0.7722 C.2    1 <0>      -0.1300
    5 C5        0.0397    -3.2452    -1.6900 C.2    1 <0>       0.0600
    6 C6       -0.7972    -3.4579    -2.7514 C.2    1 <0>      -0.2200
    7 C7       -0.3592    -4.6973    -3.2854 C.2    1 <0>       0.1100
    8 C8       -0.9220    -5.4083    -4.4571 C.2    1 <0>      -0.1200
    9 C9       -1.9548    -4.9979    -5.2341 C.2    1 <0>       0.0900
   10 N10      -2.1857    -5.9143    -6.2165 N.pl3  1 <0>      -0.4800
   11 C11      -3.2267    -5.8007    -7.2410 C.3    1 <0>       0.0800
   12 C12      -1.2981    -6.9632    -6.1070 C.ar   1 <0>       0.0900
   13 C13      -1.1075    -8.1308    -6.8386 C.ar   1 <0>      -0.1300
   14 C14      -0.1119    -9.0125    -6.4788 C.ar   1 <0>      -0.1000
   15 C15       0.7068    -8.7490    -5.3898 C.ar   1 <0>      -0.1400
   16 C16       0.5343    -7.5989    -4.6520 C.ar   1 <0>      -0.0600
   17 C17      -0.4646    -6.6943    -5.0079 C.ar   1 <0>      -0.0800
   18 N18       0.6441    -5.0887    -2.5342 N.2    1 <0>      -0.3600
   19 O19       0.8802    -4.2954    -1.6532 O.3    1 <0>       0.1100
   20 C20       0.0340    -2.1363     0.7002 C.ar   1 <0>      -0.0800
   21 C21       0.0519    -3.1686     1.6357 C.ar   1 <0>      -0.0700
   22 C22       0.0535    -2.8703     2.9805 C.ar   1 <0>      -0.1400
   23 C23       0.0369    -1.5494     3.4051 C.ar   1 <0>      -0.1000
   24 C24       0.0190    -0.5183     2.4914 C.ar   1 <0>      -0.1300
   25 C25       0.0236    -0.7983     1.1288 C.ar   1 <0>       0.0900
   26 H26       1.0048     1.8381     0.0023 H      1 <0>       0.0700
   27 H27      -0.5450     1.8219    -0.8730 H      1 <0>       0.0900
   28 H28      -0.5280     1.8123     0.9069 H      1 <0>       0.0800
   29 H29      -0.0020    -0.4017    -2.1326 H      1 <0>       0.1800
   30 H30      -1.6030    -2.8295    -3.1008 H      1 <0>       0.1700
   31 H31      -2.5111    -4.0826    -5.0953 H      1 <0>       0.1800
   32 H32      -2.8258    -5.2789    -8.1100 H      1 <0>       0.0700
   33 H33      -3.5568    -6.7968    -7.5357 H      1 <0>       0.0800
   34 H34      -4.0720    -5.2417    -6.8396 H      1 <0>       0.0900
   35 H35      -1.7394    -8.3460    -7.6875 H      1 <0>       0.1200
   36 H36       0.0326    -9.9179    -7.0497 H      1 <0>       0.1300
   37 H37       1.4830    -9.4496    -5.1192 H      1 <0>       0.1300
   38 H38       1.1728    -7.3968    -3.8048 H      1 <0>       0.1300
   39 H39       0.0641    -4.1976     1.3081 H      1 <0>       0.1200
   40 H40       0.0674    -3.6684     3.7080 H      1 <0>       0.1300
   41 H41       0.0376    -1.3274     4.4620 H      1 <0>       0.1300
   42 H42       0.0059     0.5062     2.8327 H      1 <0>       0.1200
@<TRIPOS>BOND
   1    1    2 1
   2    1   26 1
   3    1   27 1
   4    1   28 1
   5    2   25 1
   6    2    3 1
   7    3    4 2
   8    3   29 1
   9    4    5 1
  10    4   20 1
  11    5   19 1
  12    5    6 2
  13    6    7 1
  14    6   30 1
  15    7    8 1
  16    7   18 2
  17    8   17 1
  18    8    9 2
  19    9   10 1
  20    9   31 1
  21   10   11 1
  22   10   12 1
  23   11   32 1
  24   11   33 1
  25   11   34 1
  26   12   17 ar
  27   12   13 ar
  28   13   14 ar
  29   13   35 1
  30   14   15 ar
  31   14   36 1
  32   15   16 ar
  33   15   37 1
  34   16   17 ar
  35   16   38 1
  36   18   19 1
  37   20   25 ar
  38   20   21 ar
  39   21   22 ar
  40   21   39 1
  41   22   23 ar
  42   22   40 1
  43   23   24 ar
  44   23   41 1
  45   24   25 ar
  46   24   42 1
