@<TRIPOS>MOLECULE
ZINC000039059267
41    43    1     0     0
SMALL
USER_CHARGES
@<TRIPOS>ATOM
1      C1     -0.4031    1.3172   -0.0633 C.3      1 ZINC000039059267   -0.1500
2      C2     -0.2659   -0.2062   -0.0305 C.3      1 ZINC000039059267   -0.1200
3      C3      0.5394   -0.6194    1.2031 C.3      1 ZINC000039059267   -0.6200
4      S4      0.7021   -2.4256    1.2420 S.o2     1 ZINC000039059267    2.6000
5      O5     -0.5572   -3.0345    1.4928 O.2      1 ZINC000039059267   -0.9400
6      O6      1.5344   -2.8742    0.1812 O.2      1 ZINC000039059267   -0.9400
7      N7      1.5834   -2.7318    2.6101 N.am     1 ZINC000039059267   -1.0500
8      C8      1.0956   -2.3338    3.8608 C.ar     1 ZINC000039059267    0.1100
9      C9     -0.2672   -2.3822    4.1212 C.ar     1 ZINC000039059267   -0.1000
10     C10    -0.7566   -1.9912    5.3544 C.ar     1 ZINC000039059267   -0.1300
11     C11     0.1070   -1.5486    6.3376 C.ar     1 ZINC000039059267    0.1500
12     F12    -0.3761   -1.1679    7.5405 F        1 ZINC000039059267   -0.1200
13     C13     1.4831   -1.4955    6.0867 C.ar     1 ZINC000039059267   -0.2000
14     C14     2.4102   -1.0238    7.1341 C.2      1 ZINC000039059267    0.4800
15     O15     2.9648   -1.8261    7.8621 O.2      1 ZINC000039059267   -0.4200
16     C16     2.6632    0.4134    7.2977 C.2      1 ZINC000039059267   -0.2400
17     C17     2.1913    1.4228    6.5083 C.2      1 ZINC000039059267    0.1500
18     N18     2.6373    2.6145    6.9741 N.pl3    1 ZINC000039059267   -0.5600
19     C19     3.4224    2.4345    8.0918 C.ar     1 ZINC000039059267    0.2800
20     N20     4.0712    3.2767    8.8848 N.ar     1 ZINC000039059267   -0.4700
21     C21     4.7725    2.8552    9.9161 C.ar     1 ZINC000039059267    0.1600
22     C22     4.8681    1.5071   10.2253 C.ar     1 ZINC000039059267   -0.1100
23     Cl23    5.8009    0.9849   11.5931 Cl       1 ZINC000039059267   -0.0400
24     C24     4.2111    0.5815    9.4318 C.ar     1 ZINC000039059267   -0.0100
25     C25     3.4715    1.0540    8.3501 C.ar     1 ZINC000039059267   -0.1000
26     C26     1.9758   -1.8966    4.8416 C.ar     1 ZINC000039059267    0.1400
27     F27     3.3023   -1.8489    4.5899 F        1 ZINC000039059267   -0.1100
28     H28     0.5873    1.7704   -0.1073 H        1 ZINC000039059267    0.0600
29     H29    -0.9768    1.6116   -0.9421 H        1 ZINC000039059267    0.0700
30     H30    -0.9176    1.6551    0.8363 H        1 ZINC000039059267    0.0600
31     H31    -1.2562   -0.6594    0.0135 H        1 ZINC000039059267    0.0800
32     H32     0.2486   -0.5441   -0.9301 H        1 ZINC000039059267    0.0800
33     H33     1.5297   -0.1662    1.1591 H        1 ZINC000039059267    0.1400
34     H34     0.0249   -0.2815    2.1027 H        1 ZINC000039059267    0.1400
35     H35     2.4376   -3.1868    2.5450 H        1 ZINC000039059267    0.4300
36     H36    -0.9485   -2.7265    3.3572 H        1 ZINC000039059267    0.1900
37     H37    -1.8181   -2.0318    5.5493 H        1 ZINC000039059267    0.1600
38     H38     1.5583    1.2911    5.6432 H        1 ZINC000039059267    0.1900
39     H39     2.4324    3.4749    6.5757 H        1 ZINC000039059267    0.4300
40     H40     5.2854    3.5762   10.5353 H        1 ZINC000039059267    0.1800
41     H41     4.2674   -0.4752    9.6477 H        1 ZINC000039059267    0.1600
@<TRIPOS>BOND
1     1     2     1
2     1     28    1
3     1     29    1
4     1     30    1
5     2     3     1
6     2     31    1
7     2     32    1
8     3     4     1
9     3     33    1
10    3     34    1
11    4     5     2
12    4     6     2
13    4     7     am
14    7     8     1
15    7     35    1
16    8     26    ar
17    8     9     ar
18    9     10    ar
19    9     36    1
20    10    11    ar
21    10    37    1
22    11    12    1
23    11    13    ar
24    13    14    1
25    13    26    ar
26    14    15    2
27    14    16    1
28    16    25    1
29    16    17    2
30    17    18    1
31    17    38    1
32    18    19    1
33    18    39    1
34    19    25    ar
35    19    20    ar
36    20    21    ar
37    21    22    ar
38    21    40    1
39    22    23    1
40    22    24    ar
41    24    25    ar
42    24    41    1
43    26    27    1
@<TRIPOS>SUBSTRUCTURE
1   ZINC000039059267 1     RESIDUE    1   A     ZIN   1
