@<TRIPOS>MOLECULE
ZINC000000608205
33    35    1     0     0
SMALL
USER_CHARGES
@<TRIPOS>ATOM
1      C1     -0.0255    1.5537   -0.0092 C.3      1 ZINC000000608205   -0.1500
2      C2      0.0084    0.0240   -0.0097 C.3      1 ZINC000000608205   -0.0500
3      C3     -1.4008   -0.5097    0.0105 C.2      1 ZINC000000608205    0.0700
4      C4     -2.1472   -0.7920   -1.0938 C.2      1 ZINC000000608205   -0.2200
5      C5     -1.7456   -0.6396   -2.4996 C.2      1 ZINC000000608205    0.4800
6      O6     -2.0283    0.3767   -3.1064 O.2      1 ZINC000000608205   -0.4800
7      C7     -0.9992   -1.7192   -3.1753 C.ar     1 ZINC000000608205   -0.3000
8      C8     -0.7769   -2.9336   -2.5200 C.ar     1 ZINC000000608205    0.0300
9      C9     -0.0798   -3.9389   -3.1539 C.ar     1 ZINC000000608205   -0.2300
10     Br10    0.2218   -5.5823   -2.2685 Br       1 ZINC000000608205   -0.0800
11     C11     0.4019   -3.7467   -4.4442 C.ar     1 ZINC000000608205    0.3300
12     O12     1.0878   -4.7396   -5.0656 O.3      1 ZINC000000608205   -0.6400
13     C13     0.1823   -2.5401   -5.0996 C.ar     1 ZINC000000608205   -0.2300
14     Br14    0.8389   -2.2856   -6.8546 Br       1 ZINC000000608205   -0.0800
15     C15    -0.5181   -1.5318   -4.4741 C.ar     1 ZINC000000608205    0.0300
16     C16    -3.4432   -1.2840   -0.5848 C.ar     1 ZINC000000608205   -0.1000
17     C17    -4.6162   -1.7281   -1.1854 C.ar     1 ZINC000000608205   -0.0700
18     C18    -5.6751   -2.1298   -0.3986 C.ar     1 ZINC000000608205   -0.1300
19     C19    -5.5711   -2.0913    0.9832 C.ar     1 ZINC000000608205   -0.1000
20     C20    -4.4128   -1.6522    1.5891 C.ar     1 ZINC000000608205   -0.1100
21     C21    -3.3353   -1.2440    0.8131 C.ar     1 ZINC000000608205    0.0500
22     O22    -2.1040   -0.7825    1.1154 O.3      1 ZINC000000608205   -0.1900
23     H23     0.9938    1.9397   -0.0238 H        1 ZINC000000608205    0.0700
24     H24    -0.5600    1.9056   -0.8916 H        1 ZINC000000608205    0.0600
25     H25    -0.5344    1.9055    0.8882 H        1 ZINC000000608205    0.0600
26     H26     0.5173   -0.3278   -0.9071 H        1 ZINC000000608205    0.1000
27     H27     0.5429   -0.3279    0.8726 H        1 ZINC000000608205    0.0900
28     H28    -1.1506   -3.0836   -1.5179 H        1 ZINC000000608205    0.1100
29     H29    -0.6886   -0.5950   -4.9839 H        1 ZINC000000608205    0.1200
30     H30    -4.6975   -1.7579   -2.2619 H        1 ZINC000000608205    0.1300
31     H31    -6.5882   -2.4752   -0.8604 H        1 ZINC000000608205    0.1300
32     H32    -6.4056   -2.4079    1.5912 H        1 ZINC000000608205    0.1300
33     H33    -4.3433   -1.6258    2.6665 H        1 ZINC000000608205    0.1300
@<TRIPOS>BOND
1     1     2     1
2     1     23    1
3     1     24    1
4     1     25    1
5     2     3     1
6     2     26    1
7     2     27    1
8     3     22    1
9     3     4     2
10    4     5     1
11    4     16    1
12    5     6     2
13    5     7     1
14    7     15    ar
15    7     8     ar
16    8     9     ar
17    8     28    1
18    9     10    1
19    9     11    ar
20    11    12    1
21    11    13    ar
22    13    14    1
23    13    15    ar
24    15    29    1
25    16    21    ar
26    16    17    ar
27    17    18    ar
28    17    30    1
29    18    19    ar
30    18    31    1
31    19    20    ar
32    19    32    1
33    20    21    ar
34    20    33    1
35    21    22    1
@<TRIPOS>SUBSTRUCTURE
1   ZINC000000608205 1     RESIDUE    1   A     ZIN   1
