@<TRIPOS>MOLECULE
ZINC000299864063
60    65    1     0     0
SMALL
USER_CHARGES
@<TRIPOS>ATOM
1      N1      0.0622   -0.9144    1.4419 N.1      1 ZINC000299864063   -0.4100
2      C2      0.0445    0.1929    1.1888 C.1      1 ZINC000299864063    0.2700
3      C3      0.0222    1.5888    0.8699 C.ar     1 ZINC000299864063   -0.0700
4      C4     -1.1930    2.3052    0.8638 C.ar     1 ZINC000299864063    0.0800
5      C5     -2.4734    1.6327    1.1865 C.ar     1 ZINC000299864063   -0.0700
6      C6     -3.3416    2.1927    2.1231 C.ar     1 ZINC000299864063   -0.0900
7      C7     -4.5324    1.5618    2.4195 C.ar     1 ZINC000299864063   -0.1200
8      C8     -4.8657    0.3761    1.7897 C.ar     1 ZINC000299864063   -0.1100
9      C9     -4.0082   -0.1846    0.8600 C.ar     1 ZINC000299864063   -0.1200
10     C10    -2.8174    0.4403    0.5508 C.ar     1 ZINC000299864063   -0.0900
11     C11    -1.1583    3.6622    0.5469 C.ar     1 ZINC000299864063   -0.1900
12     C12     0.0612    4.2646    0.2487 C.ar     1 ZINC000299864063    0.2400
13     C13     0.0962    5.7081   -0.0882 C.ar     1 ZINC000299864063   -0.0600
14     C14    -1.0823    6.4527   -0.0995 C.ar     1 ZINC000299864063   -0.0900
15     C15    -1.0436    7.7960   -0.4134 C.ar     1 ZINC000299864063   -0.1200
16     C16     0.1616    8.4037   -0.7164 C.ar     1 ZINC000299864063   -0.1000
17     C17     1.3343    7.6699   -0.7067 C.ar     1 ZINC000299864063   -0.1300
18     C18     1.3085    6.3272   -0.3892 C.ar     1 ZINC000299864063   -0.0700
19     N19     1.1924    3.5716    0.2608 N.ar     1 ZINC000299864063   -0.5400
20     C20     1.2190    2.2766    0.5607 C.ar     1 ZINC000299864063    0.4000
21     N21     2.3946    1.6115    0.5604 N.2      1 ZINC000299864063   -0.5300
22     C22     3.5157    2.2490    0.2621 C.2      1 ZINC000299864063    0.3900
23     S23     3.7025    3.9621   -0.1560 S.3      1 ZINC000299864063    0.1500
24     C24     5.4594    3.8661   -0.3717 C.2      1 ZINC000299864063   -0.2600
25     C25     5.7855    2.5910   -0.1234 C.2      1 ZINC000299864063    0.1400
26     C26     7.1882    2.1298   -0.2070 C.ar     1 ZINC000299864063   -0.0500
27     C27     7.5041    0.9729   -0.9207 C.ar     1 ZINC000299864063   -0.0900
28     C28     8.8147    0.5483   -0.9951 C.ar     1 ZINC000299864063   -0.1200
29     C29     9.8146    1.2664   -0.3638 C.ar     1 ZINC000299864063   -0.1000
30     C30     9.5081    2.4142    0.3454 C.ar     1 ZINC000299864063   -0.1200
31     C31     8.2023    2.8528    0.4228 C.ar     1 ZINC000299864063   -0.0900
32     N32     4.7764    1.7312    0.2159 N.pl3    1 ZINC000299864063   -0.4400
33     C33     5.0252    0.3815    0.4926 C.ar     1 ZINC000299864063    0.1200
34     C34     5.7381    0.0242    1.6297 C.ar     1 ZINC000299864063   -0.1000
35     C35     5.9814   -1.3081    1.9001 C.ar     1 ZINC000299864063   -0.1100
36     C36     5.5161   -2.2859    1.0400 C.ar     1 ZINC000299864063   -0.1000
37     C37     4.8064   -1.9334   -0.0933 C.ar     1 ZINC000299864063   -0.1100
38     C38     4.5548   -0.6031   -0.3664 C.ar     1 ZINC000299864063   -0.0900
39     H39    -3.0823    3.1182    2.6156 H        1 ZINC000299864063    0.1300
40     H40    -5.2055    1.9944    3.1449 H        1 ZINC000299864063    0.1300
41     H41    -5.7989   -0.1141    2.0249 H        1 ZINC000299864063    0.1300
42     H42    -4.2736   -1.1106    0.3718 H        1 ZINC000299864063    0.1300
43     H43    -2.1488    0.0017   -0.1751 H        1 ZINC000299864063    0.1200
44     H44    -2.0697    4.2414    0.5323 H        1 ZINC000299864063    0.1500
45     H45    -2.0238    5.9792    0.1365 H        1 ZINC000299864063    0.1300
46     H46    -1.9560    8.3738   -0.4228 H        1 ZINC000299864063    0.1300
47     H47     0.1871    9.4552   -0.9618 H        1 ZINC000299864063    0.1300
48     H48     2.2722    8.1496   -0.9445 H        1 ZINC000299864063    0.1300
49     H49     2.2246    5.7553   -0.3816 H        1 ZINC000299864063    0.1300
50     H50     6.1277    4.6688   -0.6465 H        1 ZINC000299864063    0.1900
51     H51     6.7244    0.4110   -1.4134 H        1 ZINC000299864063    0.1200
52     H52     9.0605   -0.3469   -1.5471 H        1 ZINC000299864063    0.1300
53     H53    10.8389    0.9294   -0.4245 H        1 ZINC000299864063    0.1300
54     H54    10.2932    2.9703    0.8360 H        1 ZINC000299864063    0.1300
55     H55     7.9643    3.7491    0.9763 H        1 ZINC000299864063    0.1300
56     H56     6.1020    0.7874    2.3017 H        1 ZINC000299864063    0.1200
57     H57     6.5360   -1.5866    2.7840 H        1 ZINC000299864063    0.1300
58     H58     5.7077   -3.3271    1.2536 H        1 ZINC000299864063    0.1300
59     H59     4.4447   -2.6994   -0.7633 H        1 ZINC000299864063    0.1300
60     H60     4.0005   -0.3285   -1.2516 H        1 ZINC000299864063    0.1200
@<TRIPOS>BOND
1     1     2     3
2     2     3     1
3     3     20    ar
4     3     4     ar
5     4     5     1
6     4     11    ar
7     5     10    ar
8     5     6     ar
9     6     7     ar
10    6     39    1
11    7     8     ar
12    7     40    1
13    8     9     ar
14    8     41    1
15    9     10    ar
16    9     42    1
17    10    43    1
18    11    12    ar
19    11    44    1
20    12    13    1
21    12    19    ar
22    13    18    ar
23    13    14    ar
24    14    15    ar
25    14    45    1
26    15    16    ar
27    15    46    1
28    16    17    ar
29    16    47    1
30    17    18    ar
31    17    48    1
32    18    49    1
33    19    20    ar
34    20    21    1
35    21    22    2
36    22    32    1
37    22    23    1
38    23    24    1
39    24    25    2
40    24    50    1
41    25    26    1
42    25    32    1
43    26    31    ar
44    26    27    ar
45    27    28    ar
46    27    51    1
47    28    29    ar
48    28    52    1
49    29    30    ar
50    29    53    1
51    30    31    ar
52    30    54    1
53    31    55    1
54    32    33    1
55    33    38    ar
56    33    34    ar
57    34    35    ar
58    34    56    1
59    35    36    ar
60    35    57    1
61    36    37    ar
62    36    58    1
63    37    38    ar
64    37    59    1
65    38    60    1
@<TRIPOS>SUBSTRUCTURE
1   ZINC000299864063 1     RESIDUE    1   A     ZIN   1
