@<TRIPOS>MOLECULE
ZINC000006404102
  32   34    0    0    0
SMALL
USER_CHARGES
NO_NAME
@<TRIPOS>ATOM
    1 C1       -0.0173     1.4248     0.0099 C.3    1 <0>       0.0300
    2 O2        0.0021    -0.0041     0.0020 O.3    1 <0>      -0.3200
    3 C3        0.6266    -0.6192     1.0428 C.ar   1 <0>       0.0300
    4 C4        1.2006     0.1366     2.0484 C.ar   1 <0>      -0.0900
    5 C5        1.8413    -0.4733     3.1152 C.ar   1 <0>      -0.2200
    6 C6        1.9134    -1.8529     3.1891 C.ar   1 <0>       0.1900
    7 O7        2.5431    -2.4494     4.2339 O.3    1 <0>      -0.2500
    8 C8        3.1110    -1.5908     5.2251 C.3    1 <0>       0.0100
    9 C9        1.3322    -2.6304     2.1791 C.ar   1 <0>      -0.1500
   10 C10       0.6824    -2.0118     1.0977 C.ar   1 <0>       0.2300
   11 N11       0.1162    -2.7742     0.0915 N.pl3  1 <0>      -0.6200
   12 C12      -0.1052    -4.1288     0.2465 C.ar   1 <0>       0.2200
   13 C13      -0.9409    -4.8103    -0.6330 C.ar   1 <0>      -0.1800
   14 C14      -1.1527    -6.1631    -0.4733 C.ar   1 <0>      -0.0400
   15 C15      -0.5405    -6.8591     0.5584 C.ar   1 <0>      -0.1600
   16 C16       0.2893    -6.2039     1.4425 C.ar   1 <0>      -0.0200
   17 C17       0.5112    -4.8352     1.2940 C.ar   1 <0>      -0.1500
   18 C18       1.3813    -4.1015     2.2318 C.2    1 <0>       0.1900
   19 S19       2.4063    -4.9223     3.3303 S.2    1 <0>      -0.4300
   20 H20       1.0053     1.8021     0.0021 H      1 <0>       0.0600
   21 H21      -0.5445     1.7859    -0.8732 H      1 <0>       0.1000
   22 H22      -0.5275     1.7763     0.9067 H      1 <0>       0.0600
   23 H23       1.1494     1.2143     2.0018 H      1 <0>       0.1400
   24 H24       2.2865     0.1308     3.8919 H      1 <0>       0.1400
   25 H25       3.5822    -2.1938     6.0013 H      1 <0>       0.1000
   26 H26       3.8582    -0.9461     4.7623 H      1 <0>       0.0600
   27 H27       2.3260    -0.9777     5.6676 H      1 <0>       0.0600
   28 H28      -0.1317    -2.3469    -0.7433 H      1 <0>       0.4300
   29 H29      -1.4236    -4.2795    -1.4403 H      1 <0>       0.1400
   30 H30      -1.8027    -6.6866    -1.1588 H      1 <0>       0.1400
   31 H31      -0.7151    -7.9190     0.6697 H      1 <0>       0.1400
   32 H32       0.7648    -6.7473     2.2456 H      1 <0>       0.1500
@<TRIPOS>BOND
   1    1    2 1
   2    1   20 1
   3    1   21 1
   4    1   22 1
   5    2    3 1
   6    3   10 ar
   7    3    4 ar
   8    4    5 ar
   9    4   23 1
  10    5    6 ar
  11    5   24 1
  12    6    7 1
  13    6    9 ar
  14    7    8 1
  15    8   25 1
  16    8   26 1
  17    8   27 1
  18    9   18 1
  19    9   10 ar
  20   10   11 1
  21   11   12 1
  22   11   28 1
  23   12   17 ar
  24   12   13 ar
  25   13   14 ar
  26   13   29 1
  27   14   15 ar
  28   14   30 1
  29   15   16 ar
  30   15   31 1
  31   16   17 ar
  32   16   32 1
  33   17   18 1
  34   18   19 2
