@<TRIPOS>MOLECULE
ZINC000061389537
56    59    1     0     0
SMALL
USER_CHARGES
@<TRIPOS>ATOM
1      C1      0.1405    1.6616   -0.6241 C.3      1 ZINC000061389537   -0.1700
2      C2      0.1650    0.1552   -0.5883 C.2      1 ZINC000061389537    0.5100
3      O3      0.2262   -0.4252    0.4748 O.2      1 ZINC000061389537   -0.5500
4      N4      0.1190   -0.5470   -1.7378 N.am     1 ZINC000061389537   -0.7300
5      C5      0.1429   -2.0114   -1.7030 C.3      1 ZINC000061389537    0.1200
6      C6      0.0807   -2.5566   -3.1312 C.3      1 ZINC000061389537   -0.0900
7      C7      0.1053   -4.0630   -3.0954 C.ar     1 ZINC000061389537   -0.1000
8      C8      1.3152   -4.7336   -3.1324 C.ar     1 ZINC000061389537   -0.0900
9      C9      1.3488   -6.1152   -3.0996 C.ar     1 ZINC000061389537   -0.1400
10     C10     0.1685   -6.8369   -3.0298 C.ar     1 ZINC000061389537    0.1400
11     O11     0.2004   -8.1945   -2.9975 O.3      1 ZINC000061389537   -0.4900
12     C12    -1.0572   -6.1617   -2.9923 C.ar     1 ZINC000061389537   -0.0500
13     C13    -2.3244   -6.9239   -2.9178 C.ar     1 ZINC000061389537   -0.0700
14     C14    -2.8686   -7.2469   -1.6765 C.ar     1 ZINC000061389537    0.1100
15     O15    -2.2347   -6.8611   -0.5398 O.3      1 ZINC000061389537   -0.4800
16     C16    -4.0650   -7.9664   -1.5964 C.ar     1 ZINC000061389537    0.1200
17     O17    -4.5906   -8.2770   -0.3852 O.3      1 ZINC000061389537   -0.4600
18     C18    -4.7180   -8.3641   -2.7640 C.ar     1 ZINC000061389537   -0.1100
19     C19    -5.9769   -9.1235   -2.6928 C.2      1 ZINC000061389537    0.4500
20     O20    -6.5925   -9.1968   -1.6468 O.2      1 ZINC000061389537   -0.4400
21     C21    -6.4859   -9.7975   -3.9112 C.ar     1 ZINC000061389537   -0.1400
22     C22    -5.9378   -9.4703   -5.1660 C.ar     1 ZINC000061389537   -0.1500
23     C23    -4.8611   -8.4594   -5.2537 C.2      1 ZINC000061389537    0.4200
24     O24    -4.5518   -7.9824   -6.3290 O.2      1 ZINC000061389537   -0.3700
25     C25    -4.1681   -8.0376   -4.0261 C.ar     1 ZINC000061389537   -0.1100
26     C26    -2.9774   -7.3141   -4.0990 C.ar     1 ZINC000061389537    0.1800
27     O27    -2.4495   -6.9937   -5.3052 O.3      1 ZINC000061389537   -0.4600
28     C28    -6.4118  -10.1017   -6.3213 C.ar     1 ZINC000061389537   -0.0100
29     C29    -5.8400   -9.7623   -7.6428 C.2      1 ZINC000061389537    0.5800
30     O30    -4.8252  -10.3219   -8.0316 O.co2    1 ZINC000061389537   -0.6900
31     O31    -6.3824   -8.9223   -8.3459 O.co2    1 ZINC000061389537   -0.6800
32     C32    -7.4352  -11.0618   -6.2182 C.ar     1 ZINC000061389537   -0.1200
33     C33    -7.9421  -11.7347   -7.4299 C.2      1 ZINC000061389537    0.5100
34     O34    -7.4069  -11.5326   -8.5107 O.co2    1 ZINC000061389537   -0.6300
35     O35    -8.8973  -12.4944   -7.3532 O.co2    1 ZINC000061389537   -0.6900
36     C36    -7.9718  -11.3781   -4.9640 C.ar     1 ZINC000061389537    0.1400
37     O37    -8.9572  -12.3023   -4.8652 O.3      1 ZINC000061389537   -0.4700
38     C38    -7.4960  -10.7456   -3.8178 C.ar     1 ZINC000061389537   -0.1200
39     C39    -1.0786   -4.7681   -3.0202 C.ar     1 ZINC000061389537   -0.0800
40     H40     1.1608    2.0403   -0.6834 H        1 ZINC000061389537    0.0900
41     H41    -0.4221    1.9952   -1.4961 H        1 ZINC000061389537    0.0800
42     H42    -0.3351    2.0388    0.2812 H        1 ZINC000061389537    0.0900
43     H43     0.0701   -0.0828   -2.5881 H        1 ZINC000061389537    0.4000
44     H44     1.0627   -2.3485   -1.2251 H        1 ZINC000061389537    0.0700
45     H45    -0.7149   -2.3754   -1.1375 H        1 ZINC000061389537    0.0700
46     H46    -0.8391   -2.2194   -3.6091 H        1 ZINC000061389537    0.0800
47     H47     0.9385   -2.1925   -3.6967 H        1 ZINC000061389537    0.0800
48     H48     2.2378   -4.1749   -3.1874 H        1 ZINC000061389537    0.1300
49     H49     2.2964   -6.6326   -3.1287 H        1 ZINC000061389537    0.1300
50     H50     0.2483   -8.5657   -2.1059 H        1 ZINC000061389537    0.3900
51     H51    -2.5067   -5.9925   -0.2132 H        1 ZINC000061389537    0.3900
52     H52    -5.1984   -7.6102   -0.0374 H        1 ZINC000061389537    0.3900
53     H53    -2.7550   -6.1458   -5.6555 H        1 ZINC000061389537    0.4000
54     H54    -8.6375  -13.2060   -4.7375 H        1 ZINC000061389537    0.3800
55     H55    -7.9139  -10.9938   -2.8533 H        1 ZINC000061389537    0.1300
56     H56    -2.0208   -4.2411   -2.9915 H        1 ZINC000061389537    0.1300
@<TRIPOS>BOND
1     1     2     1
2     1     40    1
3     1     41    1
4     1     42    1
5     2     3     2
6     2     4     am
7     4     5     1
8     4     43    1
9     5     6     1
10    5     44    1
11    5     45    1
12    6     7     1
13    6     46    1
14    6     47    1
15    7     39    ar
16    7     8     ar
17    8     9     ar
18    8     48    1
19    9     10    ar
20    9     49    1
21    10    11    1
22    10    12    ar
23    11    50    1
24    12    13    1
25    12    39    ar
26    13    26    ar
27    13    14    ar
28    14    15    1
29    14    16    ar
30    15    51    1
31    16    17    1
32    16    18    ar
33    17    52    1
34    18    25    ar
35    18    19    1
36    19    20    2
37    19    21    1
38    21    38    ar
39    21    22    ar
40    22    23    1
41    22    28    ar
42    23    24    2
43    23    25    1
44    25    26    ar
45    26    27    1
46    27    53    1
47    28    29    1
48    28    32    ar
49    29    30    ar
50    29    31    ar
51    32    33    1
52    32    36    ar
53    33    34    ar
54    33    35    ar
55    36    37    1
56    36    38    ar
57    37    54    1
58    38    55    1
59    39    56    1
@<TRIPOS>SUBSTRUCTURE
1   ZINC000061389537 1     RESIDUE    1   A     ZIN   1
