@<TRIPOS>MOLECULE
ZINC000001630827
54    58    1     0     0
SMALL
USER_CHARGES
@<TRIPOS>ATOM
1      C1     -0.2769    0.1831    0.1661 C.3      1 ZINC000001630827    0.0200
2      O2     -0.3117   -1.2156    0.4569 O.3      1 ZINC000001630827   -0.3100
3      C3      0.3327   -1.6287    1.5809 C.ar     1 ZINC000001630827    0.1100
4      C4      0.9791   -0.7075    2.3887 C.ar     1 ZINC000001630827   -0.1800
5      C5      1.6335   -1.1292    3.5316 C.ar     1 ZINC000001630827   -0.0600
6      C6      2.3361   -0.1257    4.4092 C.3      1 ZINC000001630827    0.1100
7      H7      2.5345    0.7836    3.8418 H        1 ZINC000001630827    0.1000
8      O8      3.5691   -0.6780    4.8828 O.3      1 ZINC000001630827   -0.2900
9      C9      4.1766   -0.0252    5.9115 C.ar     1 ZINC000001630827    0.0400
10     C10     5.5110   -0.2737    6.1759 C.ar     1 ZINC000001630827   -0.0600
11     C11     6.1480    0.3861    7.2305 C.ar     1 ZINC000001630827   -0.0300
12     C12     7.5709    0.1244    7.5152 C.2      1 ZINC000001630827    0.1200
13     C13     8.4594    0.1359    6.4823 C.2      1 ZINC000001630827   -0.0500
14     O14     8.0337    0.3856    5.2140 O.3      1 ZINC000001630827   -0.4600
15     C15     9.8323   -0.1141    6.7397 C.2      1 ZINC000001630827    0.4000
16     O16    10.6570   -0.1115    5.8397 O.2      1 ZINC000001630827   -0.5000
17     C17    10.2230   -0.3762    8.1341 C.ar     1 ZINC000001630827   -0.3700
18     C18    11.5564   -0.6322    8.4792 C.ar     1 ZINC000001630827    0.2200
19     O19    12.5199   -0.6429    7.5235 O.3      1 ZINC000001630827   -0.4900
20     C20    11.8834   -0.8734    9.8006 C.ar     1 ZINC000001630827   -0.2900
21     C21    10.8946   -0.8620   10.7784 C.ar     1 ZINC000001630827    0.3300
22     O22    11.2269   -1.1001   12.0730 O.3      1 ZINC000001630827   -0.6900
23     C23     9.5732   -0.6094   10.4443 C.ar     1 ZINC000001630827   -0.2900
24     C24     9.2253   -0.3647    9.1248 C.ar     1 ZINC000001630827    0.2000
25     O25     7.9442   -0.1114    8.7847 O.3      1 ZINC000001630827   -0.2100
26     C26     5.4320    1.2949    8.0141 C.ar     1 ZINC000001630827   -0.0800
27     C27     4.1028    1.5386    7.7439 C.ar     1 ZINC000001630827   -0.1200
28     C28     3.4698    0.8842    6.6945 C.ar     1 ZINC000001630827    0.0600
29     O29     2.1592    1.1472    6.4415 O.3      1 ZINC000001630827   -0.2900
30     C30     1.4584    0.2036    5.6243 C.3      1 ZINC000001630827    0.0700
31     H31     0.5147    0.6355    5.2909 H        1 ZINC000001630827    0.1300
32     C32     1.1876   -1.0716    6.4252 C.3      1 ZINC000001630827    0.0500
33     O33     0.2987   -0.7765    7.5045 O.3      1 ZINC000001630827   -0.5600
34     C34     1.6443   -2.4690    3.8709 C.ar     1 ZINC000001630827   -0.1100
35     C35     1.0014   -3.3938    3.0686 C.ar     1 ZINC000001630827   -0.1100
36     C36     0.3395   -2.9774    1.9253 C.ar     1 ZINC000001630827    0.0900
37     O37    -0.2932   -3.8856    1.1352 O.3      1 ZINC000001630827   -0.4800
38     H38     0.7579    0.5033    0.0448 H        1 ZINC000001630827    0.0600
39     H39    -0.8274    0.3765   -0.7546 H        1 ZINC000001630827    0.1000
40     H40    -0.7347    0.7362    0.9862 H        1 ZINC000001630827    0.0600
41     H41     0.9721    0.3399    2.1258 H        1 ZINC000001630827    0.1400
42     H42     6.0605   -0.9772    5.5680 H        1 ZINC000001630827    0.1400
43     H43     8.7390    0.3719    4.5525 H        1 ZINC000001630827    0.4000
44     H44    12.9328    0.2182    7.3715 H        1 ZINC000001630827    0.3800
45     H45    12.9092   -1.0716   10.0742 H        1 ZINC000001630827    0.1200
46     H46     8.8141   -0.6031   11.2125 H        1 ZINC000001630827    0.1200
47     H47     5.9200    1.8061    8.8307 H        1 ZINC000001630827    0.1400
48     H48     3.5509    2.2413    8.3505 H        1 ZINC000001630827    0.1400
49     H49     0.7339   -1.8196    5.7750 H        1 ZINC000001630827    0.0700
50     H50     2.1264   -1.4572    6.8228 H        1 ZINC000001630827    0.0600
51     H51     0.0825   -1.5407    8.0561 H        1 ZINC000001630827    0.3800
52     H52     2.1562   -2.7943    4.7645 H        1 ZINC000001630827    0.1400
53     H53     1.0119   -4.4402    3.3357 H        1 ZINC000001630827    0.1400
54     H54    -1.2172   -4.0396    1.3752 H        1 ZINC000001630827    0.3900
@<TRIPOS>BOND
1     1     2     1
2     1     38    1
3     1     39    1
4     1     40    1
5     2     3     1
6     3     36    ar
7     3     4     ar
8     4     5     ar
9     4     41    1
10    5     6     1
11    5     34    ar
12    6     7     1
13    6     30    1
14    6     8     1
15    8     9     1
16    9     28    ar
17    9     10    ar
18    10    11    ar
19    10    42    1
20    11    12    1
21    11    26    ar
22    12    25    1
23    12    13    2
24    13    14    1
25    13    15    1
26    14    43    1
27    15    16    2
28    15    17    1
29    17    24    ar
30    17    18    ar
31    18    19    1
32    18    20    ar
33    19    44    1
34    20    21    ar
35    20    45    1
36    21    22    1
37    21    23    ar
38    23    24    ar
39    23    46    1
40    24    25    1
41    26    27    ar
42    26    47    1
43    27    28    ar
44    27    48    1
45    28    29    1
46    29    30    1
47    30    31    1
48    30    32    1
49    32    33    1
50    32    49    1
51    32    50    1
52    33    51    1
53    34    35    ar
54    34    52    1
55    35    36    ar
56    35    53    1
57    36    37    1
58    37    54    1
@<TRIPOS>SUBSTRUCTURE
1   ZINC000001630827 1     RESIDUE    1   A     ZIN   1
