@<TRIPOS>MOLECULE
ZINC000017836932
  29   31    0    0    0
SMALL
USER_CHARGES
NO_NAME
@<TRIPOS>ATOM
    1 N1       -0.0156     1.2994     0.0092 N.2    1 <0>      -0.7500
    2 C2        0.0021    -0.0041     0.0020 C.2    1 <0>       0.6100
    3 N3        1.1380    -0.7767    -0.0070 N.am   1 <0>      -0.7000
    4 C4        0.7945    -2.0798    -0.0121 C.2    1 <0>       0.5600
    5 O5        1.5548    -3.0296    -0.0200 O.2    1 <0>      -0.4800
    6 C6       -0.6771    -2.1342    -0.0059 C.2    1 <0>       0.0400
    7 C7       -1.4532    -3.2469    -0.0074 C.2    1 <0>       0.0100
    8 C8       -0.8488    -4.6369    -0.0105 C.3    1 <0>      -0.1000
    9 C9       -1.6644    -5.5378    -0.9449 C.3    1 <0>       0.1200
   10 N10      -2.0014    -4.9016    -2.2088 N.am   1 <0>      -0.7200
   11 C11      -3.0884    -4.0919    -2.3165 C.2    1 <0>       0.6000
   12 O12      -3.5327    -3.7746    -3.4044 O.2    1 <0>      -0.5300
   13 C13      -3.7081    -3.6139    -1.0729 C.2    1 <0>      -0.0300
   14 C14      -2.9166    -3.1628    -0.0000 C.2    1 <0>      -0.1100
   15 C15      -3.8030    -2.6866     0.9773 C.2    1 <0>      -0.1700
   16 C16      -5.0613    -2.9041     0.5251 C.2    1 <0>       0.0100
   17 N17      -5.0081    -3.4914    -0.7049 N.pl3  1 <0>      -0.5000
   18 N18      -1.1110    -0.8063     0.0083 N.pl3  1 <0>      -0.6400
   19 H19       0.8177     1.7958     0.0039 H      1 <0>       0.3600
   20 H20       2.0465    -0.4369    -0.0096 H      1 <0>       0.4300
   21 H21       0.1817    -4.5853    -0.3620 H      1 <0>       0.1000
   22 H22      -0.8700    -5.0455     0.9998 H      1 <0>       0.1000
   23 H23      -1.0892    -6.4407    -1.1503 H      1 <0>       0.0900
   24 H24      -2.5874    -5.8218    -0.4393 H      1 <0>       0.0800
   25 H25      -1.4422    -5.0569    -2.9860 H      1 <0>       0.4100
   26 H26      -3.5320    -2.2306     1.9181 H      1 <0>       0.1500
   27 H27      -5.9673    -2.6529     1.0566 H      1 <0>       0.1800
   28 H28      -5.7731    -3.7725    -1.2310 H      1 <0>       0.4300
   29 H29      -2.0332    -0.5055     0.0156 H      1 <0>       0.4400
@<TRIPOS>BOND
   1    1    2 2
   2    1   19 1
   3    2   18 1
   4    2    3 1
   5    3    4 am
   6    3   20 1
   7    4    5 2
   8    4    6 1
   9    6    7 2
  10    6   18 1
  11    7   14 1
  12    7    8 1
  13    8    9 1
  14    8   21 1
  15    8   22 1
  16    9   10 1
  17    9   23 1
  18    9   24 1
  19   10   11 am
  20   10   25 1
  21   11   12 2
  22   11   13 1
  23   13   17 1
  24   13   14 2
  25   14   15 1
  26   15   16 2
  27   15   26 1
  28   16   17 1
  29   16   27 1
  30   17   28 1
  31   18   29 1
