@<TRIPOS>MOLECULE
ZINC000000039173
  28   29    0    0    0
SMALL
USER_CHARGES
NO_NAME
@<TRIPOS>ATOM
    1 O1        0.0020    -0.0040     0.0118 O.2    1 <0>      -0.4800
    2 C2       -0.0145     1.2116     0.0104 C.2    1 <0>       0.5600
    3 N3        1.1435     1.9012     0.0014 N.am   1 <0>      -0.6700
    4 C4        2.3626     1.2219     0.0916 C.ar   1 <0>       0.1400
    5 C5        3.4245     1.7872     0.7858 C.ar   1 <0>      -0.1400
    6 C6        4.6271     1.1137     0.8730 C.ar   1 <0>      -0.1000
    7 C7        4.7746    -0.1220     0.2702 C.ar   1 <0>      -0.1300
    8 C8        3.7194    -0.6874    -0.4221 C.ar   1 <0>      -0.1000
    9 C9        2.5122    -0.0220    -0.5079 C.ar   1 <0>      -0.1200
   10 C10      -1.3038     1.9330     0.0124 C.ar   1 <0>      -0.1300
   11 C11      -1.3265     3.3288     0.0050 C.ar   1 <0>      -0.0100
   12 C12      -2.5337     3.9961     0.0070 C.ar   1 <0>      -0.0500
   13 N13      -2.5589     5.4760    -0.0013 N.pl3  1 <0>       0.0300
   14 O14      -1.5146     6.1029    -0.0100 O.2    1 <0>      -0.1500
   15 O15      -3.6239     6.0670     0.0004 O.2    1 <0>      -0.1400
   16 C16      -3.7212     3.2858     0.0163 C.ar   1 <0>      -0.0200
   17 C17      -3.7076     1.9028     0.0242 C.ar   1 <0>      -0.1100
   18 C18      -2.5064     1.2212     0.0160 C.ar   1 <0>       0.0600
   19 Cl19     -2.4905    -0.5147     0.0253 Cl     1 <0>       0.0100
   20 H20       1.1313     2.8687    -0.0678 H      1 <0>       0.4100
   21 H21       3.3101     2.7524     1.2565 H      1 <0>       0.1300
   22 H22       5.4534     1.5529     1.4124 H      1 <0>       0.1300
   23 H23       5.7161    -0.6466     0.3399 H      1 <0>       0.1300
   24 H24       3.8380    -1.6525    -0.8921 H      1 <0>       0.1300
   25 H25       1.6885    -0.4640    -1.0487 H      1 <0>       0.1400
   26 H26      -0.4007     3.8850    -0.0019 H      1 <0>       0.1600
   27 H27      -4.6633     3.8140     0.0178 H      1 <0>       0.1700
   28 H28      -4.6382     1.3547     0.0318 H      1 <0>       0.1700
@<TRIPOS>BOND
   1    1    2 2
   2    2    3 am
   3    2   10 1
   4    3    4 1
   5    3   20 1
   6    4    9 ar
   7    4    5 ar
   8    5    6 ar
   9    5   21 1
  10    6    7 ar
  11    6   22 1
  12    7    8 ar
  13    7   23 1
  14    8    9 ar
  15    8   24 1
  16    9   25 1
  17   10   18 ar
  18   10   11 ar
  19   11   12 ar
  20   11   26 1
  21   12   13 1
  22   12   16 ar
  23   13   14 2
  24   13   15 2
  25   16   17 ar
  26   16   27 1
  27   17   18 ar
  28   17   28 1
  29   18   19 1
