@<TRIPOS>MOLECULE
ZINC000073069271
  38   41    0    0    0
SMALL
USER_CHARGES
NO_NAME
@<TRIPOS>ATOM
    1 C1        0.4053     0.7107     0.7775 C.3    1 <0>      -0.1600
    2 C2        0.2054    -0.7249     0.2876 C.3    1 <0>       0.1600
    3 C3        0.8794    -1.6943     1.2608 C.3    1 <0>      -0.1600
    4 N4       -1.2274    -1.0216     0.2167 N.pl3  1 <0>      -0.3700
    5 N5       -2.1169    -0.9738     1.2954 N.2    1 <0>      -0.2300
    6 C6       -3.3239    -1.2938     0.8928 C.2    1 <0>       0.1700
    7 C7       -4.5422    -1.3587     1.7355 C.ar   1 <0>      -0.0100
    8 C8       -5.4140    -2.4443     1.6184 C.ar   1 <0>      -0.1100
    9 C9       -6.5486    -2.5129     2.3975 C.ar   1 <0>      -0.0700
   10 C10      -6.8309    -1.5027     3.3039 C.ar   1 <0>       0.0000
   11 O11      -7.8378    -1.2925     4.1835 O.3    1 <0>      -0.2300
   12 C12      -7.6047    -0.1310     4.8193 C.2    1 <0>       0.5100
   13 N13      -8.4159     0.4137     5.7887 N.pl3  1 <0>      -0.7900
   14 N14      -6.4944     0.4060     4.3827 N.2    1 <0>      -0.5400
   15 C15      -5.9611    -0.4078     3.4296 C.ar   1 <0>       0.0700
   16 C16      -4.8120    -0.3424     2.6446 C.ar   1 <0>      -0.0400
   17 C17      -3.2461    -1.5740    -0.5406 C.ar   1 <0>      -0.3200
   18 C18      -4.1669    -1.9585    -1.5289 C.ar   1 <0>       0.5200
   19 N19      -5.4985    -2.1553    -1.2179 N.pl3  1 <0>      -0.8300
   20 N20      -3.7251    -2.1279    -2.7714 N.ar   1 <0>      -0.6000
   21 C21      -2.4530    -1.9407    -3.0746 C.ar   1 <0>       0.3900
   22 N22      -1.5556    -1.5812    -2.1831 N.ar   1 <0>      -0.5700
   23 C23      -1.9021    -1.3814    -0.9118 C.ar   1 <0>       0.3800
   24 H24       1.4714     0.9315     0.8303 H      1 <0>       0.0800
   25 H25      -0.0748     1.4013     0.0842 H      1 <0>       0.0600
   26 H26      -0.0382     0.8221     1.7669 H      1 <0>       0.0700
   27 H27       0.6490    -0.8363    -0.7018 H      1 <0>       0.1100
   28 H28       1.9455    -1.4735     1.3136 H      1 <0>       0.0800
   29 H29       0.4359    -1.5829     2.2502 H      1 <0>       0.0700
   30 H30       0.7370    -2.7170     0.9118 H      1 <0>       0.0600
   31 H31      -5.1978    -3.2335     0.9135 H      1 <0>       0.1500
   32 H32      -7.2187    -3.3545     2.3017 H      1 <0>       0.1400
   33 H33      -9.2255    -0.0472     6.0589 H      1 <0>       0.4200
   34 H34      -8.1780     1.2585     6.2018 H      1 <0>       0.4400
   35 H35      -4.1360     0.4944     2.7401 H      1 <0>       0.1400
   36 H36      -5.8574    -1.8137    -0.3840 H      1 <0>       0.4100
   37 H37      -6.0745    -2.6350    -1.8334 H      1 <0>       0.4100
   38 H38      -2.1369    -2.0894    -4.0966 H      1 <0>       0.2100
@<TRIPOS>BOND
   1    1    2 1
   2    1   24 1
   3    1   25 1
   4    1   26 1
   5    2    3 1
   6    2    4 1
   7    2   27 1
   8    3   28 1
   9    3   29 1
  10    3   30 1
  11    4   23 1
  12    4    5 1
  13    5    6 2
  14    6    7 1
  15    6   17 1
  16    7   16 ar
  17    7    8 ar
  18    8    9 ar
  19    8   31 1
  20    9   10 ar
  21    9   32 1
  22   10   15 ar
  23   10   11 1
  24   11   12 1
  25   12   13 1
  26   12   14 2
  27   13   33 1
  28   13   34 1
  29   14   15 1
  30   15   16 ar
  31   16   35 1
  32   17   23 ar
  33   17   18 ar
  34   18   19 1
  35   18   20 ar
  36   19   36 1
  37   19   37 1
  38   20   21 ar
  39   21   22 ar
  40   21   38 1
  41   22   23 ar
