@<TRIPOS>MOLECULE
ZINC000052509366
51    54    1     0     0
SMALL
USER_CHARGES
@<TRIPOS>ATOM
1      C1      6.8697   -0.4747    2.4949 C.3      1 ZINC000052509366   -0.1500
2      C2      5.3650   -0.5047    2.2199 C.3      1 ZINC000052509366   -0.1200
3      C3      5.1157   -0.3008    0.7241 C.3      1 ZINC000052509366   -0.6200
4      S4      3.3316   -0.3363    0.3981 S.o2     1 ZINC000052509366    2.6000
5      O5      2.8120   -1.6418    0.6096 O.2      1 ZINC000052509366   -0.9400
6      O6      2.6989    0.8043    0.9618 O.2      1 ZINC000052509366   -0.9400
7      N7      3.2058   -0.1067   -1.2371 N.am     1 ZINC000052509366   -1.0500
8      C8      3.8053   -1.0135   -2.1196 C.ar     1 ZINC000052509366    0.1100
9      C9      3.8443   -2.3651   -1.8048 C.ar     1 ZINC000052509366   -0.1100
10     C10     4.4344   -3.2671   -2.6717 C.ar     1 ZINC000052509366   -0.1300
11     C11     4.9905   -2.8303   -3.8584 C.ar     1 ZINC000052509366    0.1500
12     F12     5.5656   -3.7154   -4.7017 F        1 ZINC000052509366   -0.1200
13     C13     4.9572   -1.4699   -4.1866 C.ar     1 ZINC000052509366   -0.1900
14     C14     5.5496   -0.9981   -5.4537 C.2      1 ZINC000052509366    0.4800
15     O15     4.8480   -0.8574   -6.4383 O.2      1 ZINC000052509366   -0.4300
16     C16     6.9852   -0.6986   -5.5262 C.2      1 ZINC000052509366   -0.2500
17     C17     7.8792   -0.7199   -4.4944 C.2      1 ZINC000052509366    0.1500
18     N18     9.1116   -0.3878   -4.9494 N.pl3    1 ZINC000052509366   -0.5600
19     C19     9.0768   -0.1341   -6.3028 C.ar     1 ZINC000052509366    0.2800
20     N20    10.0102    0.2198   -7.1772 N.ar     1 ZINC000052509366   -0.4800
21     C21     9.7342    0.4102   -8.4484 C.ar     1 ZINC000052509366    0.1500
22     C22     8.4384    0.2489   -8.9429 C.ar     1 ZINC000052509366   -0.1100
23     C23     8.1493    0.4690  -10.3816 C.ar     1 ZINC000052509366   -0.0300
24     C24     6.8522    0.3115  -10.8659 C.ar     1 ZINC000052509366   -0.1000
25     C25     6.5882    0.5178  -12.2046 C.ar     1 ZINC000052509366   -0.1000
26     C26     7.6095    0.8807  -13.0660 C.ar     1 ZINC000052509366   -0.0300
27     Cl27    7.2711    1.1387  -14.7490 Cl       1 ZINC000052509366   -0.0700
28     C28     8.8997    1.0388  -12.5895 C.ar     1 ZINC000052509366   -0.1000
29     C29     9.1728    0.8395  -11.2516 C.ar     1 ZINC000052509366   -0.1000
30     C30     7.4195   -0.1226   -8.0653 C.ar     1 ZINC000052509366   -0.0100
31     C31     7.7498   -0.3212   -6.7286 C.ar     1 ZINC000052509366   -0.1000
32     C32     4.3552   -0.5611   -3.3116 C.ar     1 ZINC000052509366    0.1400
33     F33     4.3181    0.7538   -3.6195 F        1 ZINC000052509366   -0.1100
34     H34     7.3577   -1.2714    1.9334 H        1 ZINC000052509366    0.0600
35     H35     7.2763    0.4885    2.1868 H        1 ZINC000052509366    0.0600
36     H36     7.0473   -0.6200    3.5605 H        1 ZINC000052509366    0.0700
37     H37     4.9584   -1.4679    2.5280 H        1 ZINC000052509366    0.0800
38     H38     4.8771    0.2920    2.7814 H        1 ZINC000052509366    0.0800
39     H39     5.5223    0.6625    0.4160 H        1 ZINC000052509366    0.1400
40     H40     5.6037   -1.0975    0.1626 H        1 ZINC000052509366    0.1400
41     H41     2.7168    0.6561   -1.5835 H        1 ZINC000052509366    0.4300
42     H42     3.4122   -2.7139   -0.8785 H        1 ZINC000052509366    0.1900
43     H43     4.4607   -4.3170   -2.4196 H        1 ZINC000052509366    0.1600
44     H44     7.6401   -0.9642   -3.4700 H        1 ZINC000052509366    0.1900
45     H45     9.9081   -0.3359   -4.3982 H        1 ZINC000052509366    0.4300
46     H46    10.5261    0.6977   -9.1242 H        1 ZINC000052509366    0.1700
47     H47     6.0549    0.0281  -10.1948 H        1 ZINC000052509366    0.1400
48     H48     5.5834    0.3956  -12.5810 H        1 ZINC000052509366    0.1400
49     H49     9.6930    1.3220  -13.2653 H        1 ZINC000052509366    0.1400
50     H50    10.1795    0.9634  -10.8807 H        1 ZINC000052509366    0.1400
51     H51     6.4061   -0.2562   -8.4139 H        1 ZINC000052509366    0.1500
@<TRIPOS>BOND
1     1     2     1
2     1     34    1
3     1     35    1
4     1     36    1
5     2     3     1
6     2     37    1
7     2     38    1
8     3     4     1
9     3     39    1
10    3     40    1
11    4     5     2
12    4     6     2
13    4     7     am
14    7     8     1
15    7     41    1
16    8     32    ar
17    8     9     ar
18    9     10    ar
19    9     42    1
20    10    11    ar
21    10    43    1
22    11    12    1
23    11    13    ar
24    13    14    1
25    13    32    ar
26    14    15    2
27    14    16    1
28    16    31    1
29    16    17    2
30    17    18    1
31    17    44    1
32    18    19    1
33    18    45    1
34    19    31    ar
35    19    20    ar
36    20    21    ar
37    21    22    ar
38    21    46    1
39    22    23    1
40    22    30    ar
41    23    29    ar
42    23    24    ar
43    24    25    ar
44    24    47    1
45    25    26    ar
46    25    48    1
47    26    27    1
48    26    28    ar
49    28    29    ar
50    28    49    1
51    29    50    1
52    30    31    ar
53    30    51    1
54    32    33    1
@<TRIPOS>SUBSTRUCTURE
1   ZINC000052509366 1     RESIDUE    1   A     ZIN   1
