@<TRIPOS>MOLECULE
ZINC000169341686
77    82    1     0     0
SMALL
USER_CHARGES
@<TRIPOS>ATOM
1      C1     -1.0750    1.7474    0.6673 C.3      1 ZINC000169341686   -0.1500
2      C2     -1.3567    0.2723    0.9596 C.3      1 ZINC000169341686    0.0600
3      O3     -1.2564   -0.4926   -0.2705 O.3      1 ZINC000169341686   -0.3600
4      C4     -1.4779   -1.8192   -0.1858 C.2      1 ZINC000169341686    0.5100
5      O5     -1.7474   -2.3229    0.8866 O.2      1 ZINC000169341686   -0.4800
6      C6     -1.3931   -2.6590   -1.3940 C.ar     1 ZINC000169341686   -0.1500
7      C7     -1.0778   -2.0851   -2.6283 C.ar     1 ZINC000169341686   -0.0300
8      C8     -1.0002   -2.8760   -3.7541 C.ar     1 ZINC000169341686   -0.1600
9      C9     -1.2339   -4.2388   -3.6687 C.ar     1 ZINC000169341686   -0.0400
10     C10    -1.5465   -4.8196   -2.4556 C.ar     1 ZINC000169341686   -0.2100
11     C11    -1.6229   -4.0403   -1.3107 C.ar     1 ZINC000169341686    0.1700
12     O12    -1.9293   -4.6093   -0.1185 O.3      1 ZINC000169341686   -0.2100
13     C13    -2.2579   -5.9286   -0.1065 C.ar     1 ZINC000169341686   -0.0700
14     C14    -3.5825   -6.3311   -0.1853 C.ar     1 ZINC000169341686    0.1900
15     N15    -3.8672   -7.6242   -0.1710 N.ar     1 ZINC000169341686   -0.5000
16     C16    -2.9067   -8.5330   -0.0827 C.ar     1 ZINC000169341686    0.4400
17     C17    -3.2718   -9.9701   -0.0706 C.2      1 ZINC000169341686    0.1300
18     N18    -2.4339  -10.9808    0.0177 N.2      1 ZINC000169341686   -0.2300
19     N19    -3.1782  -12.1661   -0.0040 N.pl3    1 ZINC000169341686   -0.3400
20     C20    -2.6340  -13.5240    0.0732 C.3      1 ZINC000169341686    0.1800
21     C21    -2.5503  -13.9504    1.5162 C.ar     1 ZINC000169341686   -0.1600
22     C22    -1.3713  -13.7868    2.2180 C.ar     1 ZINC000169341686   -0.0600
23     C23    -1.2943  -14.1780    3.5419 C.ar     1 ZINC000169341686   -0.1300
24     C24    -2.3961  -14.7334    4.1648 C.ar     1 ZINC000169341686   -0.0800
25     C25    -3.5764  -14.8984    3.4647 C.ar     1 ZINC000169341686   -0.1600
26     C26    -3.6567  -14.5011    2.1410 C.ar     1 ZINC000169341686    0.1200
27     F27    -4.8098  -14.6619    1.4557 F        1 ZINC000169341686   -0.1300
28     C28    -4.4882  -11.8402   -0.1079 C.2      1 ZINC000169341686    0.0600
29     C29    -4.5803  -10.4952   -0.1456 C.2      1 ZINC000169341686   -0.2000
30     C30    -6.0284  -10.0706   -0.2627 C.3      1 ZINC000169341686   -0.0400
31     C31    -6.7801  -11.3381   -0.7249 C.3      1 ZINC000169341686   -0.1200
32     C32    -5.8650  -12.4637   -0.1912 C.3      1 ZINC000169341686   -0.0400
33     N33    -1.6273   -8.1913   -0.0054 N.ar     1 ZINC000169341686   -0.5300
34     C34    -1.2656   -6.9146   -0.0201 C.ar     1 ZINC000169341686    0.4200
35     N35     0.0752   -6.5605    0.0611 N.pl3    1 ZINC000169341686   -0.6200
36     C36     1.0542   -7.5410    0.0276 C.ar     1 ZINC000169341686    0.2700
37     C37     0.8107   -8.7775   -0.5690 C.ar     1 ZINC000169341686   -0.1900
38     C38     1.8100   -9.7267   -0.5820 C.ar     1 ZINC000169341686    0.1600
39     N39     2.9911   -9.4856   -0.0403 N.ar     1 ZINC000169341686   -0.5100
40     C40     3.2755   -8.3367    0.5359 C.ar     1 ZINC000169341686    0.1900
41     C41     2.3266   -7.3148    0.5907 C.ar     1 ZINC000169341686   -0.2300
42     C42     2.6445   -6.0288    1.2355 C.2      1 ZINC000169341686    0.5200
43     O43     1.7786   -5.1872    1.3721 O.2      1 ZINC000169341686   -0.5100
44     O44     3.8954   -5.7858    1.6737 O.3      1 ZINC000169341686   -0.3500
45     C45     4.1363   -4.4976    2.2990 C.3      1 ZINC000169341686    0.0600
46     C46     5.6018   -4.4053    2.7286 C.3      1 ZINC000169341686   -0.1500
47     H47    -1.1504    2.3216    1.5907 H        1 ZINC000169341686    0.0800
48     H48    -0.0710    1.8511    0.2559 H        1 ZINC000169341686    0.0700
49     H49    -1.8031    2.1206   -0.0530 H        1 ZINC000169341686    0.0700
50     H50    -0.6286   -0.1008    1.6799 H        1 ZINC000169341686    0.0700
51     H51    -2.3607    0.1686    1.3710 H        1 ZINC000169341686    0.0700
52     H52    -0.8955   -1.0230   -2.7000 H        1 ZINC000169341686    0.1500
53     H53    -0.7564   -2.4313   -4.7076 H        1 ZINC000169341686    0.1400
54     H54    -1.1716   -4.8507   -4.5565 H        1 ZINC000169341686    0.1400
55     H55    -1.7276   -5.8827   -2.3974 H        1 ZINC000169341686    0.1300
56     H56    -4.3728   -5.5985   -0.2571 H        1 ZINC000169341686    0.1900
57     H57    -3.2856  -14.2080   -0.4706 H        1 ZINC000169341686    0.1100
58     H58    -1.6380  -13.5420   -0.3693 H        1 ZINC000169341686    0.1100
59     H59    -0.5096  -13.3536    1.7320 H        1 ZINC000169341686    0.1400
60     H60    -0.3723  -14.0498    4.0896 H        1 ZINC000169341686    0.1300
61     H61    -2.3346  -15.0389    5.1989 H        1 ZINC000169341686    0.1400
62     H62    -4.4370  -15.3330    3.9515 H        1 ZINC000169341686    0.1400
63     H63    -6.4051   -9.7383    0.7046 H        1 ZINC000169341686    0.0800
64     H64    -6.1319   -9.2776   -1.0033 H        1 ZINC000169341686    0.0800
65     H65    -7.7684  -11.3929   -0.2686 H        1 ZINC000169341686    0.0800
66     H66    -6.8521  -11.3735   -1.8120 H        1 ZINC000169341686    0.0800
67     H67    -5.8554  -13.3048   -0.8845 H        1 ZINC000169341686    0.0800
68     H68    -6.1989  -12.7879    0.7944 H        1 ZINC000169341686    0.0900
69     H69     0.3263   -5.6270    0.1412 H        1 ZINC000169341686    0.4400
70     H70    -0.1497   -8.9891   -1.0154 H        1 ZINC000169341686    0.1700
71     H71     1.6243  -10.6855   -1.0431 H        1 ZINC000169341686    0.1700
72     H72     4.2539   -8.1818    0.9663 H        1 ZINC000169341686    0.1700
73     H73     3.9153   -3.7016    1.5879 H        1 ZINC000169341686    0.0700
74     H74     3.4940   -4.3924    3.1734 H        1 ZINC000169341686    0.0700
75     H75     5.8228   -5.2013    3.4397 H        1 ZINC000169341686    0.0700
76     H76     6.2441   -4.5105    1.8542 H        1 ZINC000169341686    0.0700
77     H77     5.7826   -3.4382    3.1980 H        1 ZINC000169341686    0.0800
@<TRIPOS>BOND
1     1     2     1
2     1     47    1
3     1     48    1
4     1     49    1
5     2     3     1
6     2     50    1
7     2     51    1
8     3     4     1
9     4     5     2
10    4     6     1
11    6     11    ar
12    6     7     ar
13    7     8     ar
14    7     52    1
15    8     9     ar
16    8     53    1
17    9     10    ar
18    9     54    1
19    10    11    ar
20    10    55    1
21    11    12    1
22    12    13    1
23    13    34    ar
24    13    14    ar
25    14    15    ar
26    14    56    1
27    15    16    ar
28    16    17    1
29    16    33    ar
30    17    29    1
31    17    18    2
32    18    19    1
33    19    20    1
34    19    28    1
35    20    21    1
36    20    57    1
37    20    58    1
38    21    26    ar
39    21    22    ar
40    22    23    ar
41    22    59    1
42    23    24    ar
43    23    60    1
44    24    25    ar
45    24    61    1
46    25    26    ar
47    25    62    1
48    26    27    1
49    28    32    1
50    28    29    2
51    29    30    1
52    30    31    1
53    30    63    1
54    30    64    1
55    31    32    1
56    31    65    1
57    31    66    1
58    32    67    1
59    32    68    1
60    33    34    ar
61    34    35    1
62    35    36    1
63    35    69    1
64    36    41    ar
65    36    37    ar
66    37    38    ar
67    37    70    1
68    38    39    ar
69    38    71    1
70    39    40    ar
71    40    41    ar
72    40    72    1
73    41    42    1
74    42    43    2
75    42    44    1
76    44    45    1
77    45    46    1
78    45    73    1
79    45    74    1
80    46    75    1
81    46    76    1
82    46    77    1
@<TRIPOS>SUBSTRUCTURE
1   ZINC000169341686 1     RESIDUE    1   A     ZIN   1
