@<TRIPOS>MOLECULE
ZINC000043077305
  42   45    0    0    0
SMALL
USER_CHARGES
NO_NAME
@<TRIPOS>ATOM
    1 C1       -0.0184     1.5028     0.0103 C.3    1 <0>      -0.1100
    2 C2        0.0021    -0.0041     0.0020 C.ar   1 <0>      -0.1000
    3 C3        0.0058    -0.6905    -1.1982 C.ar   1 <0>      -0.1000
    4 C4        0.0239    -2.0690    -1.2094 C.ar   1 <0>      -0.1200
    5 C5        0.0392    -2.7827    -0.0092 C.ar   1 <0>       0.1300
    6 C6        0.0358    -2.0847     1.1888 C.ar   1 <0>      -0.1200
    7 C7        0.0229    -0.7035     1.1947 C.ar   1 <0>      -0.0800
    8 C8        0.0546    -3.0813     2.3259 C.3    1 <0>      -0.0900
    9 C9        0.0694    -4.4550     1.6355 C.3    1 <0>       0.1100
   10 N10       0.0585    -4.1633     0.1995 N.am   1 <0>      -0.5300
   11 C11       0.0656    -5.0920    -0.7772 C.2    1 <0>       0.5000
   12 O12       0.0550    -4.7484    -1.9416 O.2    1 <0>      -0.5000
   13 C13       0.0865    -6.5412    -0.4278 C.2    1 <0>       0.4300
   14 O14       0.0972    -6.8852     0.7380 O.2    1 <0>      -0.4300
   15 C15       0.0943    -7.5488    -1.4875 C.2    1 <0>      -0.2800
   16 C16       0.0901    -7.3203    -2.8506 C.2    1 <0>       0.1700
   17 N17       0.1000    -8.4957    -3.5050 N.pl3  1 <0>      -0.5700
   18 C18       0.1110    -9.5512    -2.6144 C.ar   1 <0>       0.0700
   19 C19       0.1235   -10.9319    -2.7800 C.ar   1 <0>      -0.1100
   20 C20       0.1327   -11.7575    -1.6759 C.ar   1 <0>      -0.1000
   21 C21       0.1292   -11.2253    -0.3957 C.ar   1 <0>      -0.0900
   22 C22       0.1395   -12.1438     0.7990 C.3    1 <0>      -0.1100
   23 C23       0.1169    -9.8589    -0.2112 C.ar   1 <0>      -0.0800
   24 C24       0.1145    -9.0146    -1.3172 C.ar   1 <0>      -0.0500
   25 H25       1.0042     1.8801     0.0026 H      1 <0>       0.0700
   26 H26      -0.5455     1.8639    -0.8728 H      1 <0>       0.0700
   27 H27      -0.5286     1.8543     0.9071 H      1 <0>       0.0700
   28 H28      -0.0060    -0.1449    -2.1302 H      1 <0>       0.1300
   29 H29       0.0260    -2.5992    -2.1503 H      1 <0>       0.1400
   30 H30       0.0204    -0.1688     2.1330 H      1 <0>       0.1300
   31 H31       0.9513    -2.9505     2.9316 H      1 <0>       0.0900
   32 H32      -0.8394    -2.9741     2.9403 H      1 <0>       0.0900
   33 H33       0.9727    -5.0030     1.9032 H      1 <0>       0.0900
   34 H34      -0.8166    -5.0267     1.9119 H      1 <0>       0.0900
   35 H35       0.0802    -6.3471    -3.3187 H      1 <0>       0.2000
   36 H36       0.0991    -8.5891    -4.4705 H      1 <0>       0.4200
   37 H37       0.1256   -11.3571    -3.7728 H      1 <0>       0.1300
   38 H38       0.1424   -12.8291    -1.8096 H      1 <0>       0.1300
   39 H39       1.1695   -12.3555     1.0858 H      1 <0>       0.0700
   40 H40      -0.3779   -11.6647     1.6302 H      1 <0>       0.0700
   41 H41      -0.3658   -13.0757     0.5452 H      1 <0>       0.0700
   42 H42       0.1143    -9.4460     0.7868 H      1 <0>       0.1300
@<TRIPOS>BOND
   1    1    2 1
   2    1   25 1
   3    1   26 1
   4    1   27 1
   5    2    7 ar
   6    2    3 ar
   7    3    4 ar
   8    3   28 1
   9    4    5 ar
  10    4   29 1
  11    5   10 1
  12    5    6 ar
  13    6    7 ar
  14    6    8 1
  15    7   30 1
  16    8    9 1
  17    8   31 1
  18    8   32 1
  19    9   10 1
  20    9   33 1
  21    9   34 1
  22   10   11 am
  23   11   12 2
  24   11   13 1
  25   13   14 2
  26   13   15 1
  27   15   24 1
  28   15   16 2
  29   16   17 1
  30   16   35 1
  31   17   18 1
  32   17   36 1
  33   18   24 ar
  34   18   19 ar
  35   19   20 ar
  36   19   37 1
  37   20   21 ar
  38   20   38 1
  39   21   22 1
  40   21   23 ar
  41   22   39 1
  42   22   40 1
  43   22   41 1
  44   23   24 ar
  45   23   42 1
