@<TRIPOS>MOLECULE
ZINC000071255747
  19   20    0    0    0
SMALL
USER_CHARGES
NO_NAME
@<TRIPOS>ATOM
    1 O1        0.0021    -0.0041     0.0020 O.2    1 <0>      -0.4800
    2 C2       -0.0144     1.2127     0.0087 C.2    1 <0>       0.5600
    3 N3       -1.1801     1.9027     0.0293 N.am   1 <0>      -0.6300
    4 C4       -1.1792     3.2612     0.0369 C.2    1 <0>       0.3200
    5 C5       -2.5063     3.9750     0.0605 C.3    1 <0>       0.5300
    6 F6       -2.2921     5.3575     0.0651 F      1 <0>      -0.1400
    7 F7       -3.2461     3.6215    -1.0731 F      1 <0>      -0.1600
    8 F8       -3.2125     3.6086     1.2112 F      1 <0>      -0.1600
    9 N9       -0.0958     3.9780     0.0255 N.2    1 <0>      -0.4400
   10 C10       1.1316     3.4056     0.0047 C.ar   1 <0>       0.0800
   11 C11       2.3098     4.1566    -0.0079 C.ar   1 <0>       0.1500
   12 N12       3.4774     3.5506    -0.0285 N.ar   1 <0>      -0.4500
   13 C13       3.6001     2.2352    -0.0377 C.ar   1 <0>       0.1000
   14 C14       2.4933     1.4096    -0.0266 C.ar   1 <0>      -0.0900
   15 C15       1.2298     1.9957     0.0010 C.ar   1 <0>      -0.1400
   16 H16      -2.0228     1.4225     0.0383 H      1 <0>       0.4300
   17 H17       2.2620     5.2355    -0.0011 H      1 <0>       0.1800
   18 H18       4.5868     1.7963    -0.0547 H      1 <0>       0.1800
   19 H19       2.6045     0.3354    -0.0350 H      1 <0>       0.1600
@<TRIPOS>BOND
   1    1    2 2
   2    2   15 1
   3    2    3 am
   4    3    4 1
   5    3   16 1
   6    4    5 1
   7    4    9 2
   8    5    6 1
   9    5    7 1
  10    5    8 1
  11    9   10 1
  12   10   15 ar
  13   10   11 ar
  14   11   12 ar
  15   11   17 1
  16   12   13 ar
  17   13   14 ar
  18   13   18 1
  19   14   15 ar
  20   14   19 1
