@<TRIPOS>MOLECULE
ZINC000169323975
57    60    1     0     0
SMALL
USER_CHARGES
@<TRIPOS>ATOM
1      C1     -0.0786    1.1453    0.3386 C.3      1 ZINC000169323975   -0.1200
2      C2     -0.4651    1.0900   -1.1169 C.ar     1 ZINC000169323975   -0.0800
3      C3     -0.1286   -0.0196   -1.8849 C.ar     1 ZINC000169323975    0.1000
4      N4      0.5397   -1.1936   -1.6034 N.pl3    1 ZINC000169323975   -0.5700
5      C5      0.6145   -1.9736   -2.7120 C.2      1 ZINC000169323975    0.0900
6      C6      0.0012   -1.3449   -3.7593 C.2      1 ZINC000169323975   -0.1600
7      C7     -0.1353   -1.8498   -5.1256 C.2      1 ZINC000169323975    0.0400
8      C8      0.0594   -3.1715   -5.3854 C.2      1 ZINC000169323975   -0.0200
9      N9      0.2338   -4.2005   -4.4472 N.am     1 ZINC000169323975   -0.6600
10     C10     0.3932   -5.3487   -5.1319 C.2      1 ZINC000169323975    0.7100
11     O11     0.5682   -6.4426   -4.6298 O.2      1 ZINC000169323975   -0.5200
12     N12     0.3298   -5.1071   -6.4519 N.am     1 ZINC000169323975   -0.5600
13     C13     0.4605   -6.1196   -7.5026 C.3      1 ZINC000169323975    0.1800
14     H14     0.4205   -7.1134   -7.0566 H        1 ZINC000169323975    0.1500
15     C15    -0.6671   -5.9666   -8.4906 C.2      1 ZINC000169323975    0.5100
16     O16    -1.4981   -5.0974   -8.3326 O.2      1 ZINC000169323975   -0.5100
17     N17    -0.7521   -6.7957   -9.5498 N.am     1 ZINC000169323975   -0.7000
18     C18    -1.8483   -6.6470  -10.5103 C.3      1 ZINC000169323975    0.1500
19     C19    -1.4203   -7.2156  -11.8647 C.3      1 ZINC000169323975    0.0700
20     O20    -1.2109   -8.6241  -11.7452 O.3      1 ZINC000169323975   -0.5400
21     C21    -3.0766   -7.4056  -10.0038 C.3      1 ZINC000169323975    0.0700
22     O22    -2.7913   -8.8054   -9.9696 O.3      1 ZINC000169323975   -0.5400
23     C23     1.7779   -5.9401   -8.2121 C.ar     1 ZINC000169323975   -0.1000
24     C24     2.1952   -4.6760   -8.5837 C.ar     1 ZINC000169323975   -0.1000
25     C25     3.4034   -4.5088   -9.2347 C.ar     1 ZINC000169323975   -0.1200
26     C26     4.1964   -5.6076   -9.5145 C.ar     1 ZINC000169323975    0.0800
27     F27     5.3773   -5.4450  -10.1502 F        1 ZINC000169323975   -0.1200
28     C28     3.7778   -6.8761   -9.1412 C.ar     1 ZINC000169323975    0.0700
29     F29     4.5504   -7.9505   -9.4133 F        1 ZINC000169323975   -0.1200
30     C30     2.5703   -7.0395   -8.4855 C.ar     1 ZINC000169323975   -0.1000
31     C31     0.1213   -3.7928   -6.6619 C.2      1 ZINC000169323975    0.5700
32     O32     0.0139   -3.2403   -7.7420 O.2      1 ZINC000169323975   -0.4500
33     C33    -0.4961   -0.0566   -3.2397 C.ar     1 ZINC000169323975   -0.0800
34     C34    -1.1904    1.0095   -3.8047 C.ar     1 ZINC000169323975   -0.0600
35     C35    -1.5150    2.1008   -3.0284 C.ar     1 ZINC000169323975   -0.1200
36     C36    -1.1579    2.1372   -1.6876 C.ar     1 ZINC000169323975   -0.0200
37     Cl37   -1.5751    3.5194   -0.7235 Cl       1 ZINC000169323975   -0.0600
38     H38    -0.8740    0.7087    0.9426 H        1 ZINC000169323975    0.0800
39     H39     0.8433    0.5842    0.4914 H        1 ZINC000169323975    0.0600
40     H40     0.0744    2.1831    0.6347 H        1 ZINC000169323975    0.0800
41     H41     0.9050   -1.4282   -0.7360 H        1 ZINC000169323975    0.4200
42     H42     1.0870   -2.9436   -2.7592 H        1 ZINC000169323975    0.1800
43     H43    -0.3905   -1.1736   -5.9282 H        1 ZINC000169323975    0.1600
44     H44     0.2390   -4.1024   -3.4822 H        1 ZINC000169323975    0.4300
45     H45    -0.0875   -7.4908   -9.6762 H        1 ZINC000169323975    0.4100
46     H46    -2.0937   -5.5907  -10.6208 H        1 ZINC000169323975    0.1100
47     H47    -2.2007   -7.0255  -12.6015 H        1 ZINC000169323975    0.0600
48     H48    -0.4948   -6.7364  -12.1838 H        1 ZINC000169323975    0.0500
49     H49    -0.9369   -9.0522  -12.5679 H        1 ZINC000169323975    0.3700
50     H50    -3.3281   -7.0614   -9.0006 H        1 ZINC000169323975    0.0500
51     H51    -3.9179   -7.2225  -10.6722 H        1 ZINC000169323975    0.0500
52     H52    -3.5274   -9.3494   -9.6574 H        1 ZINC000169323975    0.3700
53     H53     1.5767   -3.8179   -8.3656 H        1 ZINC000169323975    0.1700
54     H54     3.7280   -3.5205   -9.5252 H        1 ZINC000169323975    0.1500
55     H55     2.2434   -8.0267   -8.1940 H        1 ZINC000169323975    0.1500
56     H56    -1.4729    0.9816   -4.8467 H        1 ZINC000169323975    0.1400
57     H57    -2.0533    2.9295   -3.4642 H        1 ZINC000169323975    0.1400
@<TRIPOS>BOND
1     1     2     1
2     1     38    1
3     1     39    1
4     1     40    1
5     2     36    ar
6     2     3     ar
7     3     33    ar
8     3     4     1
9     4     5     1
10    4     41    1
11    5     6     2
12    5     42    1
13    6     7     1
14    6     33    1
15    7     8     2
16    7     43    1
17    8     31    1
18    8     9     1
19    9     10    am
20    9     44    1
21    10    11    2
22    10    12    am
23    12    13    1
24    12    31    am
25    13    14    1
26    13    15    1
27    13    23    1
28    15    16    2
29    15    17    am
30    17    18    1
31    17    45    1
32    18    19    1
33    18    21    1
34    18    46    1
35    19    20    1
36    19    47    1
37    19    48    1
38    20    49    1
39    21    22    1
40    21    50    1
41    21    51    1
42    22    52    1
43    23    30    ar
44    23    24    ar
45    24    25    ar
46    24    53    1
47    25    26    ar
48    25    54    1
49    26    27    1
50    26    28    ar
51    28    29    1
52    28    30    ar
53    30    55    1
54    31    32    2
55    33    34    ar
56    34    35    ar
57    34    56    1
58    35    36    ar
59    35    57    1
60    36    37    1
@<TRIPOS>SUBSTRUCTURE
1   ZINC000169323975 1     RESIDUE    1   A     ZIN   1
