@<TRIPOS>MOLECULE
ZINC000055351344
29    31    1     0     0
SMALL
USER_CHARGES
@<TRIPOS>ATOM
1      O1      0.0021   -0.0041    0.0020 O.2      1 ZINC000055351344   -0.4700
2      C2     -0.0144    1.2116    0.0087 C.2      1 ZINC000055351344    0.5600
3      N3      1.1435    1.9013    0.0014 N.am     1 ZINC000055351344   -0.6300
4      C4      2.3640    1.2186   -0.0140 C.2      1 ZINC000055351344    0.3100
5      N5      2.5221   -0.0784   -0.0282 N.2      1 ZINC000055351344   -0.2300
6      N6      3.8843   -0.3950   -0.0413 N.pl3    1 ZINC000055351344   -0.5000
7      C7      4.6165    0.7636   -0.0350 C.ar     1 ZINC000055351344    0.1400
8      C8      5.9812    1.0412   -0.0421 C.ar     1 ZINC000055351344   -0.1400
9      C9      6.4115    2.3379   -0.0321 C.ar     1 ZINC000055351344   -0.0600
10     C10     5.5032    3.3887   -0.0149 C.ar     1 ZINC000055351344   -0.1600
11     C11     4.1595    3.1461   -0.0076 C.ar     1 ZINC000055351344   -0.0400
12     C12     3.6947    1.8280   -0.0234 C.ar     1 ZINC000055351344   -0.1800
13     C13    -1.3039    1.9329    0.0187 C.ar     1 ZINC000055351344   -0.1200
14     C14    -1.3259    3.3288    0.0207 C.ar     1 ZINC000055351344   -0.0700
15     C15    -2.5324    3.9971    0.0301 C.ar     1 ZINC000055351344   -0.1000
16     C16    -3.7209    3.2867    0.0376 C.ar     1 ZINC000055351344   -0.0100
17     Cl17   -5.2353    4.1353    0.0495 Cl       1 ZINC000055351344   -0.0300
18     C18    -3.7061    1.9004    0.0353 C.ar     1 ZINC000055351344   -0.0400
19     Cl19   -5.2010    1.0178    0.0437 Cl       1 ZINC000055351344   -0.0300
20     C20    -2.5052    1.2210    0.0206 C.ar     1 ZINC000055351344   -0.0400
21     H21     1.1303    2.8712    0.0067 H        1 ZINC000055351344    0.4200
22     H22     4.2524   -1.2924   -0.0530 H        1 ZINC000055351344    0.4500
23     H23     6.6978    0.2332   -0.0551 H        1 ZINC000055351344    0.1300
24     H24     7.4708    2.5485   -0.0373 H        1 ZINC000055351344    0.1300
25     H25     5.8630    4.4069   -0.0069 H        1 ZINC000055351344    0.1300
26     H26     3.4594    3.9684    0.0061 H        1 ZINC000055351344    0.1300
27     H27    -0.3998    3.8844    0.0151 H        1 ZINC000055351344    0.1400
28     H28    -2.5501    5.0770    0.0319 H        1 ZINC000055351344    0.1500
29     H29    -2.4943    0.1411    0.0188 H        1 ZINC000055351344    0.1600
@<TRIPOS>BOND
1     1     2     2
2     2     3     am
3     2     13    1
4     3     4     1
5     3     21    1
6     4     12    1
7     4     5     2
8     5     6     1
9     6     7     1
10    6     22    1
11    7     12    ar
12    7     8     ar
13    8     9     ar
14    8     23    1
15    9     10    ar
16    9     24    1
17    10    11    ar
18    10    25    1
19    11    12    ar
20    11    26    1
21    13    20    ar
22    13    14    ar
23    14    15    ar
24    14    27    1
25    15    16    ar
26    15    28    1
27    16    17    1
28    16    18    ar
29    18    19    1
30    18    20    ar
31    20    29    1
@<TRIPOS>SUBSTRUCTURE
1   ZINC000055351344 1     RESIDUE    1   A     ZIN   1
