@<TRIPOS>MOLECULE
ZINC000147419870
50    53    1     0     0
SMALL
USER_CHARGES
@<TRIPOS>ATOM
1      C1     -0.0490    1.3285    0.0741 C.2      1 ZINC000147419870   -0.1400
2      C2     -0.0277    0.0014    0.0620 C.2      1 ZINC000147419870   -0.1200
3      C3     -1.3073   -0.8062    0.0518 C.3      1 ZINC000147419870    0.1500
4      N4     -1.1825   -1.9491    0.9538 N.am     1 ZINC000147419870   -0.6000
5      C5     -2.3851   -2.4494    1.6244 C.3      1 ZINC000147419870    0.1500
6      C6     -3.0358   -3.5046    0.7676 C.ar     1 ZINC000147419870   -0.0800
7      C7     -3.9842   -3.1406   -0.1718 C.ar     1 ZINC000147419870   -0.1100
8      C8     -4.5837   -4.1016   -0.9593 C.ar     1 ZINC000147419870   -0.0600
9      C9     -4.2316   -5.4437   -0.8068 C.ar     1 ZINC000147419870   -0.1300
10     C10    -4.8696   -6.4786   -1.6475 C.2      1 ZINC000147419870    0.5600
11     O11    -5.7029   -6.1618   -2.4741 O.2      1 ZINC000147419870   -0.5100
12     N12    -4.5274   -7.7736   -1.4978 N.am     1 ZINC000147419870   -0.6600
13     C13    -5.2126   -8.7660   -2.2105 C.ar     1 ZINC000147419870    0.0700
14     C14    -6.5094   -8.5396   -2.6456 C.ar     1 ZINC000147419870   -0.0800
15     C15    -7.1838   -9.5206   -3.3489 C.ar     1 ZINC000147419870   -0.1600
16     C16    -6.5689  -10.7285   -3.6210 C.ar     1 ZINC000147419870   -0.0900
17     C17    -5.2757  -10.9629   -3.1915 C.ar     1 ZINC000147419870   -0.1800
18     C18    -4.5900   -9.9830   -2.4897 C.ar     1 ZINC000147419870    0.1900
19     N19    -3.2815  -10.2178   -2.0541 N.pl3    1 ZINC000147419870   -0.8800
20     C20    -3.2741   -5.8041    0.1428 C.ar     1 ZINC000147419870   -0.0900
21     C21    -2.6781   -4.8325    0.9200 C.ar     1 ZINC000147419870   -0.1000
22     C22    -0.0099   -2.5603    1.1930 C.2      1 ZINC000147419870    0.5700
23     O23     0.0155   -3.5560    1.8904 O.2      1 ZINC000147419870   -0.5300
24     C24     1.2455   -2.0412    0.6229 C.ar     1 ZINC000147419870   -0.1300
25     C25     2.4187   -2.7873    0.6291 C.ar     1 ZINC000147419870   -0.0500
26     C26     3.5718   -2.2501    0.0898 C.ar     1 ZINC000147419870   -0.1300
27     C27     3.5719   -0.9773   -0.4565 C.ar     1 ZINC000147419870   -0.0900
28     C28     2.4139   -0.2210   -0.4755 C.ar     1 ZINC000147419870   -0.1200
29     C29     1.2477   -0.7472    0.0518 C.ar     1 ZINC000147419870   -0.0200
30     H30     0.8775    1.8835    0.0767 H        1 ZINC000147419870    0.1100
31     H31    -0.9929    1.8534    0.0769 H        1 ZINC000147419870    0.1100
32     H32    -2.1352   -0.1766    0.3778 H        1 ZINC000147419870    0.0900
33     H33    -1.5021   -1.1629   -0.9596 H        1 ZINC000147419870    0.0800
34     H34    -2.1113   -2.8810    2.5871 H        1 ZINC000147419870    0.1000
35     H35    -3.0830   -1.6267    1.7803 H        1 ZINC000147419870    0.0900
36     H36    -4.2560   -2.1019   -0.2885 H        1 ZINC000147419870    0.1300
37     H37    -5.3241   -3.8162   -1.6920 H        1 ZINC000147419870    0.1400
38     H38    -3.8067   -8.0184   -0.8966 H        1 ZINC000147419870    0.4000
39     H39    -6.9929   -7.5972   -2.4348 H        1 ZINC000147419870    0.1400
40     H40    -8.1942   -9.3428   -3.6864 H        1 ZINC000147419870    0.1200
41     H41    -7.1004  -11.4914   -4.1705 H        1 ZINC000147419870    0.1200
42     H42    -4.7985  -11.9078   -3.4055 H        1 ZINC000147419870    0.1200
43     H43    -2.8525  -11.0671   -2.2429 H        1 ZINC000147419870    0.4000
44     H44    -2.8031   -9.5314   -1.5633 H        1 ZINC000147419870    0.3900
45     H45    -2.9975   -6.8408    0.2660 H        1 ZINC000147419870    0.1200
46     H46    -1.9372   -5.1100    1.6551 H        1 ZINC000147419870    0.1400
47     H47     2.4287   -3.7805    1.0532 H        1 ZINC000147419870    0.1400
48     H48     4.4835   -2.8291    0.0947 H        1 ZINC000147419870    0.1300
49     H49     4.4833   -0.5720   -0.8706 H        1 ZINC000147419870    0.1300
50     H50     2.4182    0.7708   -0.9029 H        1 ZINC000147419870    0.1300
@<TRIPOS>BOND
1     1     2     2
2     1     30    1
3     1     31    1
4     2     29    1
5     2     3     1
6     3     4     1
7     3     32    1
8     3     33    1
9     4     5     1
10    4     22    am
11    5     6     1
12    5     34    1
13    5     35    1
14    6     21    ar
15    6     7     ar
16    7     8     ar
17    7     36    1
18    8     9     ar
19    8     37    1
20    9     10    1
21    9     20    ar
22    10    11    2
23    10    12    am
24    12    13    1
25    12    38    1
26    13    18    ar
27    13    14    ar
28    14    15    ar
29    14    39    1
30    15    16    ar
31    15    40    1
32    16    17    ar
33    16    41    1
34    17    18    ar
35    17    42    1
36    18    19    1
37    19    43    1
38    19    44    1
39    20    21    ar
40    20    45    1
41    21    46    1
42    22    23    2
43    22    24    1
44    24    29    ar
45    24    25    ar
46    25    26    ar
47    25    47    1
48    26    27    ar
49    26    48    1
50    27    28    ar
51    27    49    1
52    28    29    ar
53    28    50    1
@<TRIPOS>SUBSTRUCTURE
1   ZINC000147419870 1     RESIDUE    1   A     ZIN   1
