@<TRIPOS>MOLECULE
ZINC000103289234
30    31    1     0     0
SMALL
USER_CHARGES
@<TRIPOS>ATOM
1      C1     -0.0187    1.5258    0.0104 C.3      1 ZINC000103289234   -0.1500
2      C2      0.0021   -0.0041    0.0020 C.3      1 ZINC000103289234    0.0600
3      O3      0.6817   -0.4723   -1.1926 O.3      1 ZINC000103289234   -0.3500
4      C4      0.7866   -1.8063   -1.3537 C.2      1 ZINC000103289234    0.5100
5      O5      0.3228   -2.5576   -0.5186 O.2      1 ZINC000103289234   -0.4800
6      C6      1.4631   -2.3533   -2.5412 C.ar     1 ZINC000103289234   -0.2000
7      C7      2.0070   -1.4913   -3.5084 C.ar     1 ZINC000103289234    0.2000
8      N8      2.6127   -1.9503   -4.5729 N.ar     1 ZINC000103289234   -0.4700
9      C9      2.7489   -3.2639   -4.8006 C.ar     1 ZINC000103289234    0.1500
10     C10     3.4048   -3.7286   -5.9524 C.ar     1 ZINC000103289234   -0.0100
11     C11     3.5333   -5.0674   -6.1658 C.ar     1 ZINC000103289234   -0.1800
12     C12     4.2390   -5.5569   -7.4041 C.3      1 ZINC000103289234    0.5100
13     F13     4.6636   -4.4609   -8.1629 F        1 ZINC000103289234   -0.1700
14     F14     5.3476   -6.3266   -7.0357 F        1 ZINC000103289234   -0.1700
15     F15     3.3609   -6.3376   -8.1634 F        1 ZINC000103289234   -0.1700
16     C16     3.0225   -5.9924   -5.2560 C.ar     1 ZINC000103289234    0.1400
17     F17     3.1662   -7.3142   -5.4952 F        1 ZINC000103289234   -0.1200
18     C18     2.3795   -5.5769   -4.1262 C.ar     1 ZINC000103289234   -0.1100
19     C19     2.2310   -4.2045   -3.8779 C.ar     1 ZINC000103289234   -0.1000
20     C20     1.5762   -3.7381   -2.7158 C.ar     1 ZINC000103289234    0.2500
21     O21     1.0712   -4.6006   -1.8047 O.3      1 ZINC000103289234   -0.4600
22     H22     1.0039    1.9031    0.0027 H        1 ZINC000103289234    0.0700
23     H23    -0.5459    1.8868   -0.8726 H        1 ZINC000103289234    0.0700
24     H24    -0.5289    1.8773    0.9072 H        1 ZINC000103289234    0.0800
25     H25     0.5293   -0.3651    0.8851 H        1 ZINC000103289234    0.0700
26     H26    -1.0205   -0.3814    0.0098 H        1 ZINC000103289234    0.0700
27     H27     1.9225   -0.4236   -3.3695 H        1 ZINC000103289234    0.1900
28     H28     3.8059   -3.0257   -6.6675 H        1 ZINC000103289234    0.1700
29     H29     1.9869   -6.3008   -3.4275 H        1 ZINC000103289234    0.1600
30     H30     1.6949   -4.8462   -1.1077 H        1 ZINC000103289234    0.4100
@<TRIPOS>BOND
1     1     2     1
2     1     22    1
3     1     23    1
4     1     24    1
5     2     3     1
6     2     25    1
7     2     26    1
8     3     4     1
9     4     5     2
10    4     6     1
11    6     20    ar
12    6     7     ar
13    7     8     ar
14    7     27    1
15    8     9     ar
16    9     19    ar
17    9     10    ar
18    10    11    ar
19    10    28    1
20    11    12    1
21    11    16    ar
22    12    13    1
23    12    14    1
24    12    15    1
25    16    17    1
26    16    18    ar
27    18    19    ar
28    18    29    1
29    19    20    ar
30    20    21    1
31    21    30    1
@<TRIPOS>SUBSTRUCTURE
1   ZINC000103289234 1     RESIDUE    1   A     ZIN   1
