@<TRIPOS>MOLECULE
ZINC000001532860
42    41    1     0     0
SMALL
USER_CHARGES
@<TRIPOS>ATOM
1      C1      0.0397    1.6867   -0.1819 C.3      1 ZINC000001532860   -0.1200
2      C2      0.0828    0.1829   -0.0927 C.2      1 ZINC000001532860   -0.1300
3      C3      1.4075   -0.5353   -0.1115 C.3      1 ZINC000001532860   -0.1200
4      C4     -1.0312   -0.4999    0.0013 C.2      1 ZINC000001532860   -0.1700
5      C5     -2.3559    0.2183    0.0201 C.3      1 ZINC000001532860   -0.0900
6      C6     -3.2523   -0.3357   -1.0891 C.3      1 ZINC000001532860   -0.0800
7      C7     -4.5770    0.3825   -1.0703 C.2      1 ZINC000001532860   -0.1300
8      C8     -5.6742   -0.0845   -0.1489 C.3      1 ZINC000001532860   -0.1200
9      C9     -4.7747    1.4127   -1.8549 C.2      1 ZINC000001532860   -0.1600
10     C10    -6.0515    2.2063   -1.7493 C.3      1 ZINC000001532860   -0.0900
11     C11    -5.7174    3.6831   -1.5293 C.3      1 ZINC000001532860   -0.0800
12     C12    -6.9943    4.4766   -1.4237 C.2      1 ZINC000001532860   -0.1100
13     C13    -7.6820    4.9671   -2.6717 C.3      1 ZINC000001532860   -0.1300
14     C14    -7.5063    4.7399   -0.2470 C.2      1 ZINC000001532860   -0.1600
15     C15    -8.7831    5.5334   -0.1414 C.3      1 ZINC000001532860    0.1000
16     O16    -9.6555    4.9088    0.8025 O.3      1 ZINC000001532860   -0.5700
17     H17     1.0554    2.0757   -0.2534 H        1 ZINC000001532860    0.0600
18     H18    -0.5256    1.9821   -1.0658 H        1 ZINC000001532860    0.0700
19     H19    -0.4420    2.0898    0.7089 H        1 ZINC000001532860    0.0700
20     H20     1.7752   -0.6463    0.9086 H        1 ZINC000001532860    0.0700
21     H21     1.2805   -1.5201   -0.5611 H        1 ZINC000001532860    0.0600
22     H22     2.1250    0.0410   -0.6956 H        1 ZINC000001532860    0.0600
23     H23    -1.0003   -1.5775    0.0652 H        1 ZINC000001532860    0.1100
24     H24    -2.8376    0.0670    0.9861 H        1 ZINC000001532860    0.0700
25     H25    -2.1938    1.2840   -0.1420 H        1 ZINC000001532860    0.0700
26     H26    -2.7706   -0.1843   -2.0551 H        1 ZINC000001532860    0.0700
27     H27    -3.4144   -1.4013   -0.9270 H        1 ZINC000001532860    0.0700
28     H28    -5.3610   -0.9988    0.3550 H        1 ZINC000001532860    0.0600
29     H29    -5.8787    0.6874    0.5930 H        1 ZINC000001532860    0.0700
30     H30    -6.5766   -0.2798   -0.7282 H        1 ZINC000001532860    0.0700
31     H31    -4.0227    1.6934   -2.5774 H        1 ZINC000001532860    0.1100
32     H32    -6.6246    2.0966   -2.6699 H        1 ZINC000001532860    0.0700
33     H33    -6.6398    1.8378   -0.9089 H        1 ZINC000001532860    0.0700
34     H34    -5.1443    3.7927   -0.6087 H        1 ZINC000001532860    0.0700
35     H35    -5.1291    4.0516   -2.3697 H        1 ZINC000001532860    0.0700
36     H36    -8.3923    4.2148   -3.0147 H        1 ZINC000001532860    0.0700
37     H37    -8.2117    5.8945   -2.4540 H        1 ZINC000001532860    0.0700
38     H38    -6.9393    5.1468   -3.4490 H        1 ZINC000001532860    0.0700
39     H39    -7.0135    4.3884    0.6473 H        1 ZINC000001532860    0.1100
40     H40    -8.5550    6.5465    0.1898 H        1 ZINC000001532860    0.0500
41     H41    -9.2694    5.5708   -1.1162 H        1 ZINC000001532860    0.0600
42     H42   -10.4988    5.3667    0.9216 H        1 ZINC000001532860    0.3800
@<TRIPOS>BOND
1     1     2     1
2     1     17    1
3     1     18    1
4     1     19    1
5     2     3     1
6     2     4     2
7     3     20    1
8     3     21    1
9     3     22    1
10    4     5     1
11    4     23    1
12    5     6     1
13    5     24    1
14    5     25    1
15    6     7     1
16    6     26    1
17    6     27    1
18    7     8     1
19    7     9     2
20    8     28    1
21    8     29    1
22    8     30    1
23    9     10    1
24    9     31    1
25    10    11    1
26    10    32    1
27    10    33    1
28    11    12    1
29    11    34    1
30    11    35    1
31    12    13    1
32    12    14    2
33    13    36    1
34    13    37    1
35    13    38    1
36    14    15    1
37    14    39    1
38    15    16    1
39    15    40    1
40    15    41    1
41    16    42    1
@<TRIPOS>SUBSTRUCTURE
1   ZINC000001532860 1     RESIDUE    1   A     ZIN   1
