@<TRIPOS>MOLECULE
ZINC000008582204
50    54    1     0     0
SMALL
USER_CHARGES
@<TRIPOS>ATOM
1      O1      0.0346   -0.0014    0.0169 O.co2    1 ZINC000008582204   -0.6900
2      C2      0.0082    1.2215    0.0190 C.2      1 ZINC000008582204    0.5300
3      O3      1.0540    1.8558    0.0076 O.co2    1 ZINC000008582204   -0.6800
4      C4     -1.2833    1.9305    0.0291 C.ar     1 ZINC000008582204   -0.0700
5      C5     -2.4795    1.2114    0.0422 C.ar     1 ZINC000008582204   -0.0900
6      C6     -3.6860    1.8809    0.0521 C.ar     1 ZINC000008582204   -0.1300
7      C7     -3.7200    3.2654    0.0487 C.ar     1 ZINC000008582204   -0.1400
8      C8     -2.5471    3.9945    0.0353 C.ar     1 ZINC000008582204   -0.1200
9      C9     -1.3193    3.3386    0.0315 C.ar     1 ZINC000008582204   -0.0300
10     C10    -0.0597    4.1159    0.0172 C.ar     1 ZINC000008582204    0.0600
11     C11     0.2797    4.9199    1.1021 C.ar     1 ZINC000008582204   -0.1200
12     C12     1.4558    5.6433    1.0844 C.ar     1 ZINC000008582204   -0.1000
13     C13     2.3044    5.5759   -0.0077 C.ar     1 ZINC000008582204   -0.1400
14     C14     1.9852    4.7849   -1.0929 C.ar     1 ZINC000008582204   -0.1000
15     C15     0.8052    4.0423   -1.0907 C.ar     1 ZINC000008582204   -0.0600
16     C16     0.4587    3.1945   -2.2488 C.2      1 ZINC000008582204    0.5700
17     O17    -0.5714    2.5486   -2.2428 O.2      1 ZINC000008582204   -0.4900
18     N18     1.2842    3.1366   -3.3126 N.am     1 ZINC000008582204   -0.6800
19     C19     1.0056    2.2628   -4.3659 C.ar     1 ZINC000008582204    0.2200
20     C20     2.0508    1.6353   -5.0395 C.ar     1 ZINC000008582204   -0.1700
21     C21     1.7842    0.7728   -6.0787 C.ar     1 ZINC000008582204   -0.0500
22     C22     0.4647    0.5269   -6.4576 C.ar     1 ZINC000008582204   -0.1300
23     C23    -0.5924    1.1572   -5.7815 C.ar     1 ZINC000008582204    0.2000
24     C24    -0.3093    2.0211   -4.7308 C.ar     1 ZINC000008582204   -0.1600
25     N25    -1.9079    0.9231   -6.1475 N.am     1 ZINC000008582204   -0.6400
26     C26    -2.2366    0.0926   -7.1530 C.2      1 ZINC000008582204    0.5600
27     O27    -3.4075   -0.0801   -7.4360 O.2      1 ZINC000008582204   -0.5300
28     C28    -1.1907   -0.6074   -7.9126 C.ar     1 ZINC000008582204   -0.1500
29     C29    -1.5064   -1.4721   -8.9594 C.ar     1 ZINC000008582204   -0.0500
30     C30    -0.4948   -2.1086   -9.6468 C.ar     1 ZINC000008582204   -0.1400
31     C31     0.8330   -1.8974   -9.3069 C.ar     1 ZINC000008582204   -0.0800
32     C32     1.1662   -1.0457   -8.2737 C.ar     1 ZINC000008582204   -0.1300
33     C33     0.1604   -0.3935   -7.5686 C.ar     1 ZINC000008582204    0.0200
34     H34    -2.4608    0.1316    0.0442 H        1 ZINC000008582204    0.1200
35     H35    -4.6098    1.3216    0.0622 H        1 ZINC000008582204    0.1100
36     H36    -4.6703    3.7785    0.0561 H        1 ZINC000008582204    0.1100
37     H37    -2.5826    5.0739    0.0320 H        1 ZINC000008582204    0.1100
38     H38    -0.3771    4.9780    1.9574 H        1 ZINC000008582204    0.1200
39     H39     1.7153    6.2661    1.9277 H        1 ZINC000008582204    0.1200
40     H40     3.2216    6.1461   -0.0105 H        1 ZINC000008582204    0.1200
41     H41     2.6515    4.7377   -1.9416 H        1 ZINC000008582204    0.1200
42     H42     2.0717    3.7018   -3.3467 H        1 ZINC000008582204    0.4100
43     H43     3.0726    1.8262   -4.7461 H        1 ZINC000008582204    0.1300
44     H44     2.5959    0.2873   -6.6002 H        1 ZINC000008582204    0.1400
45     H45    -1.1143    2.5113   -4.2036 H        1 ZINC000008582204    0.1500
46     H46    -2.6163    1.3735   -5.6616 H        1 ZINC000008582204    0.4200
47     H47    -2.5378   -1.6428   -9.2302 H        1 ZINC000008582204    0.1400
48     H48    -0.7390   -2.7787  -10.4579 H        1 ZINC000008582204    0.1300
49     H49     1.6131   -2.4042   -9.8554 H        1 ZINC000008582204    0.1300
50     H50     2.2023   -0.8868   -8.0138 H        1 ZINC000008582204    0.1300
@<TRIPOS>BOND
1     1     2     ar
2     2     3     ar
3     2     4     1
4     4     9     ar
5     4     5     ar
6     5     6     ar
7     5     34    1
8     6     7     ar
9     6     35    1
10    7     8     ar
11    7     36    1
12    8     9     ar
13    8     37    1
14    9     10    1
15    10    15    ar
16    10    11    ar
17    11    12    ar
18    11    38    1
19    12    13    ar
20    12    39    1
21    13    14    ar
22    13    40    1
23    14    15    ar
24    14    41    1
25    15    16    1
26    16    17    2
27    16    18    am
28    18    19    1
29    18    42    1
30    19    24    ar
31    19    20    ar
32    20    21    ar
33    20    43    1
34    21    22    ar
35    21    44    1
36    22    33    1
37    22    23    ar
38    23    24    ar
39    23    25    1
40    24    45    1
41    25    26    am
42    25    46    1
43    26    27    2
44    26    28    1
45    28    33    ar
46    28    29    ar
47    29    30    ar
48    29    47    1
49    30    31    ar
50    30    48    1
51    31    32    ar
52    31    49    1
53    32    33    ar
54    32    50    1
@<TRIPOS>SUBSTRUCTURE
1   ZINC000008582204 1     RESIDUE    1   A     ZIN   1
