@<TRIPOS>MOLECULE
ZINC000000012342
44    45    1     0     0
SMALL
USER_CHARGES
@<TRIPOS>ATOM
1      C1     -0.0187    1.5258    0.0104 C.3      1 ZINC000000012342   -0.1600
2      C2      0.0021   -0.0041    0.0020 C.3      1 ZINC000000012342   -0.0800
3      H3      0.5123   -0.3556   -0.8948 H        1 ZINC000000012342    0.0700
4      C4     -1.4333   -0.5336    0.0129 C.3      1 ZINC000000012342   -0.0800
5      C5     -2.1247   -0.1373   -1.2662 C.ar     1 ZINC000000012342   -0.0700
6      C6     -2.8071    1.0624   -1.3379 C.ar     1 ZINC000000012342   -0.1100
7      C7     -3.4435    1.4305   -2.5091 C.ar     1 ZINC000000012342   -0.1300
8      C8     -3.3975    0.5962   -3.6140 C.ar     1 ZINC000000012342    0.0700
9      O9     -4.0225    0.9569   -4.7667 O.3      1 ZINC000000012342   -0.4900
10     C10    -2.7098   -0.6119   -3.5419 C.ar     1 ZINC000000012342    0.0800
11     O11    -2.6614   -1.4341   -4.6241 O.3      1 ZINC000000012342   -0.4900
12     C12    -2.0701   -0.9721   -2.3672 C.ar     1 ZINC000000012342   -0.1300
13     C13     0.7421   -0.5109    1.2415 C.3      1 ZINC000000012342   -0.0800
14     H14     0.2319   -0.1594    2.1383 H        1 ZINC000000012342    0.0700
15     C15     0.7628   -2.0407    1.2331 C.3      1 ZINC000000012342   -0.1600
16     C16     2.1775    0.0187    1.2307 C.3      1 ZINC000000012342   -0.0800
17     C17     2.8688   -0.3777    2.5097 C.ar     1 ZINC000000012342   -0.0700
18     C18     2.8095    0.4541    3.6119 C.ar     1 ZINC000000012342   -0.1100
19     C19     3.4427    0.0951    4.7877 C.ar     1 ZINC000000012342   -0.1300
20     C20     4.1379   -1.1007    4.8628 C.ar     1 ZINC000000012342    0.0700
21     O21     4.7607   -1.4555    6.0186 O.3      1 ZINC000000012342   -0.4900
22     C22     4.1972   -1.9386    3.7529 C.ar     1 ZINC000000012342    0.0800
23     O23     4.8780   -3.1139    3.8219 O.3      1 ZINC000000012342   -0.4900
24     C24     3.5564   -1.5755    2.5797 C.ar     1 ZINC000000012342   -0.1300
25     H25     1.0039    1.9031    0.0027 H        1 ZINC000000012342    0.0600
26     H26    -0.5459    1.8868   -0.8726 H        1 ZINC000000012342    0.0600
27     H27    -0.5289    1.8773    0.9072 H        1 ZINC000000012342    0.0600
28     H28    -1.4190   -1.6203    0.0965 H        1 ZINC000000012342    0.0800
29     H29    -1.9701   -0.1109    0.8621 H        1 ZINC000000012342    0.0800
30     H30    -2.8437    1.7138   -0.4772 H        1 ZINC000000012342    0.1300
31     H31    -3.9767    2.3682   -2.5623 H        1 ZINC000000012342    0.1300
32     H32    -3.4662    1.4641   -5.3737 H        1 ZINC000000012342    0.3900
33     H33    -1.9105   -1.2687   -5.2104 H        1 ZINC000000012342    0.3900
34     H34    -1.5359   -1.9089   -2.3087 H        1 ZINC000000012342    0.1300
35     H35    -0.2598   -2.4180    1.2409 H        1 ZINC000000012342    0.0600
36     H36     1.2730   -2.3923    0.3363 H        1 ZINC000000012342    0.0600
37     H37     1.2900   -2.4018    2.1162 H        1 ZINC000000012342    0.0600
38     H38     2.7143   -0.4040    0.3814 H        1 ZINC000000012342    0.0700
39     H39     2.1632    1.1054    1.1471 H        1 ZINC000000012342    0.0800
40     H40     2.2678    1.3866    3.5547 H        1 ZINC000000012342    0.1300
41     H41     3.3954    0.7471    5.6474 H        1 ZINC000000012342    0.1300
42     H42     4.2063   -1.9681    6.6227 H        1 ZINC000000012342    0.3900
43     H43     4.3404   -3.8635    4.1119 H        1 ZINC000000012342    0.3900
44     H44     3.6009   -2.2238    1.7171 H        1 ZINC000000012342    0.1300
@<TRIPOS>BOND
1     1     2     1
2     1     25    1
3     1     26    1
4     1     27    1
5     2     3     1
6     2     4     1
7     2     13    1
8     4     5     1
9     4     28    1
10    4     29    1
11    5     12    ar
12    5     6     ar
13    6     7     ar
14    6     30    1
15    7     8     ar
16    7     31    1
17    8     9     1
18    8     10    ar
19    9     32    1
20    10    11    1
21    10    12    ar
22    11    33    1
23    12    34    1
24    13    14    1
25    13    15    1
26    13    16    1
27    15    35    1
28    15    36    1
29    15    37    1
30    16    17    1
31    16    38    1
32    16    39    1
33    17    24    ar
34    17    18    ar
35    18    19    ar
36    18    40    1
37    19    20    ar
38    19    41    1
39    20    21    1
40    20    22    ar
41    21    42    1
42    22    23    1
43    22    24    ar
44    23    43    1
45    24    44    1
@<TRIPOS>SUBSTRUCTURE
1   ZINC000000012342 1     RESIDUE    1   A     ZIN   1
