@<TRIPOS>MOLECULE
ZINC000095553846
  36   39    0    0    0
SMALL
USER_CHARGES
NO_NAME
@<TRIPOS>ATOM
    1 C1       -0.0184     1.5028     0.0103 C.3    1 <0>      -0.0900
    2 C2        0.0021    -0.0041     0.0020 C.ar   1 <0>       0.4200
    3 N3        0.0055    -0.6564    -1.1483 N.ar   1 <0>      -0.6200
    4 C4        0.0235    -1.9883    -1.1641 C.ar   1 <0>       0.6100
    5 N5        0.0275    -2.6643    -2.3675 N.pl3  1 <0>      -0.8000
    6 N6        0.0381    -2.6649    -0.0228 N.ar   1 <0>      -0.6300
    7 C7        0.0346    -2.0053     1.1389 C.ar   1 <0>       0.5000
    8 C8        0.0511    -2.7446     2.4046 C.2    1 <0>      -0.1200
    9 C9        0.0438    -2.2038     3.6847 C.2    1 <0>       0.4300
   10 N10       0.0192    -0.8484     3.9996 N.pl3  1 <0>      -0.5900
   11 C11       0.0144    -0.4409     5.3390 C.2    1 <0>       0.3100
   12 N12      -0.0135     0.7994     5.7675 N.2    1 <0>      -0.3300
   13 N13      -0.0083     0.7777     7.1681 N.pl3  1 <0>      -0.4700
   14 C14       0.0235    -0.5114     7.5665 C.2    1 <0>       0.0700
   15 C15       0.0326    -1.2878     6.4592 C.2    1 <0>      -0.2700
   16 N16       0.0639    -3.2091     4.5570 N.2    1 <0>      -0.5200
   17 C17       0.0838    -4.3692     3.9058 C.2    1 <0>       0.2900
   18 C18       0.1090    -5.6999     4.3635 C.2    1 <0>      -0.1000
   19 C19       0.1259    -6.7181     3.4586 C.2    1 <0>      -0.0700
   20 C20       0.1180    -6.4271     2.0868 C.2    1 <0>      -0.1600
   21 C21       0.0941    -5.1428     1.6651 C.2    1 <0>       0.0900
   22 N22       0.0710    -4.1188     2.5614 N.pl3  1 <0>      -0.3300
   23 N23       0.0219    -0.6676     1.1429 N.ar   1 <0>      -0.6100
   24 H24       1.0042     1.8801     0.0026 H      1 <0>       0.1000
   25 H25      -0.5455     1.8639    -0.8728 H      1 <0>       0.0900
   26 H26      -0.5286     1.8543     0.9071 H      1 <0>       0.0900
   27 H27       0.0172    -2.1696    -3.2018 H      1 <0>       0.4200
   28 H28       0.0406    -3.6342    -2.3789 H      1 <0>       0.4200
   29 H29       0.0054    -0.1860     3.2910 H      1 <0>       0.4400
   30 H30      -0.0247     1.5536     7.7500 H      1 <0>       0.4400
   31 H31       0.0355    -0.8611     8.5882 H      1 <0>       0.1800
   32 H32       0.0566    -2.3673     6.4397 H      1 <0>       0.1800
   33 H33       0.1153    -5.9119     5.4225 H      1 <0>       0.1600
   34 H34       0.1457    -7.7439     3.7959 H      1 <0>       0.1500
   35 H35       0.1313    -7.2308     1.3654 H      1 <0>       0.1600
   36 H36       0.0888    -4.9274     0.6068 H      1 <0>       0.1800
@<TRIPOS>BOND
   1    1    2 1
   2    1   24 1
   3    1   25 1
   4    1   26 1
   5    2   23 ar
   6    2    3 ar
   7    3    4 ar
   8    4    5 1
   9    4    6 ar
  10    5   27 1
  11    5   28 1
  12    6    7 ar
  13    7    8 1
  14    7   23 ar
  15    8   22 1
  16    8    9 2
  17    9   10 1
  18    9   16 1
  19   10   11 1
  20   10   29 1
  21   11   15 1
  22   11   12 2
  23   12   13 1
  24   13   14 1
  25   13   30 1
  26   14   15 2
  27   14   31 1
  28   15   32 1
  29   16   17 2
  30   17   22 1
  31   17   18 1
  32   18   19 2
  33   18   33 1
  34   19   20 1
  35   19   34 1
  36   20   21 2
  37   20   35 1
  38   21   22 1
  39   21   36 1
