@<TRIPOS>MOLECULE
ZINC000100004231
48    51    1     0     0
SMALL
USER_CHARGES
@<TRIPOS>ATOM
1      O1      0.0161   -0.0022   -0.0317 O.2      1 ZINC000100004231   -0.6500
2      C2     -0.0107    1.3325    0.0012 C.2      1 ZINC000100004231    0.5100
3      C3     -1.0615    2.1378   -0.4141 C.2      1 ZINC000100004231   -0.4600
4      C4     -2.3734    1.6608   -0.9820 C.3      1 ZINC000100004231    0.0400
5      C5     -2.2222    1.4243   -2.4860 C.3      1 ZINC000100004231   -0.4200
6      S6     -3.8014    0.8501   -3.1695 S.o      1 ZINC000100004231    1.3000
7      O7     -4.7338    1.9224   -3.1729 O.2      1 ZINC000100004231   -0.8600
8      C8     -3.4381    0.6353   -4.8802 C.ar     1 ZINC000100004231   -0.4500
9      C9     -3.6114    1.6866   -5.7609 C.ar     1 ZINC000100004231   -0.0500
10     C10    -3.3264    1.5180   -7.1030 C.ar     1 ZINC000100004231   -0.1400
11     C11    -2.8677    0.2983   -7.5643 C.ar     1 ZINC000100004231   -0.0900
12     C12    -2.6936   -0.7528   -6.6835 C.ar     1 ZINC000100004231   -0.1400
13     C13    -2.9745   -0.5829   -5.3406 C.ar     1 ZINC000100004231   -0.0500
14     C14    -0.6911    3.4599   -0.2138 C.2      1 ZINC000100004231    0.5000
15     O15    -1.4348    4.5340   -0.4900 O.3      1 ZINC000100004231   -0.6500
16     N16     0.5614    3.4692    0.3138 N.pl3    1 ZINC000100004231   -0.3700
17     C17     1.2973    4.6061    0.6623 C.ar     1 ZINC000100004231    0.1800
18     C18     0.7110    5.6080    1.4249 C.ar     1 ZINC000100004231   -0.1100
19     C19     1.4406    6.7295    1.7673 C.ar     1 ZINC000100004231   -0.1000
20     C20     2.7533    6.8559    1.3514 C.ar     1 ZINC000100004231   -0.1400
21     C21     3.3399    5.8604    0.5916 C.ar     1 ZINC000100004231   -0.1100
22     C22     2.6180    4.7333    0.2514 C.ar     1 ZINC000100004231   -0.1300
23     N23     0.9842    2.1409    0.4527 N.am     1 ZINC000100004231   -0.3700
24     C24     2.2178    1.7204    0.9597 C.ar     1 ZINC000100004231    0.1800
25     C25     2.6851    2.2294    2.1645 C.ar     1 ZINC000100004231   -0.1300
26     C26     3.9039    1.8121    2.6624 C.ar     1 ZINC000100004231   -0.1100
27     C27     4.6589    0.8888    1.9625 C.ar     1 ZINC000100004231   -0.1400
28     C28     4.1966    0.3804    0.7624 C.ar     1 ZINC000100004231   -0.1100
29     C29     2.9757    0.7886    0.2623 C.ar     1 ZINC000100004231   -0.1100
30     H30    -2.6629    0.7297   -0.4950 H        1 ZINC000100004231    0.0600
31     H31    -3.1404    2.4156   -0.8081 H        1 ZINC000100004231    0.0600
32     H32    -1.9327    2.3555   -2.9729 H        1 ZINC000100004231    0.0800
33     H33    -1.4552    0.6696   -2.6598 H        1 ZINC000100004231    0.1100
34     H34    -3.9697    2.6395   -5.4005 H        1 ZINC000100004231    0.1300
35     H35    -3.4624    2.3391   -7.7912 H        1 ZINC000100004231    0.1200
36     H36    -2.6458    0.1663   -8.6130 H        1 ZINC000100004231    0.1200
37     H37    -2.3356   -1.7058   -7.0439 H        1 ZINC000100004231    0.1300
38     H38    -2.8385   -1.4040   -4.6524 H        1 ZINC000100004231    0.1400
39     H39    -0.3144    5.5103    1.7495 H        1 ZINC000100004231    0.1300
40     H40     0.9852    7.5089    2.3603 H        1 ZINC000100004231    0.1300
41     H41     3.3216    7.7341    1.6202 H        1 ZINC000100004231    0.1200
42     H42     4.3653    5.9623    0.2681 H        1 ZINC000100004231    0.1200
43     H43     3.0767    3.9562   -0.3420 H        1 ZINC000100004231    0.1200
44     H44     2.0963    2.9510    2.7113 H        1 ZINC000100004231    0.1200
45     H45     4.2678    2.2075    3.5992 H        1 ZINC000100004231    0.1200
46     H46     5.6117    0.5643    2.3538 H        1 ZINC000100004231    0.1200
47     H47     4.7889   -0.3403    0.2181 H        1 ZINC000100004231    0.1200
48     H48     2.6153    0.3912   -0.6750 H        1 ZINC000100004231    0.1300
@<TRIPOS>BOND
1     1     2     2
2     2     23    am
3     2     3     1
4     3     4     1
5     3     14    2
6     4     5     1
7     4     30    1
8     4     31    1
9     5     6     1
10    5     32    1
11    5     33    1
12    6     7     2
13    6     8     1
14    8     13    ar
15    8     9     ar
16    9     10    ar
17    9     34    1
18    10    11    ar
19    10    35    1
20    11    12    ar
21    11    36    1
22    12    13    ar
23    12    37    1
24    13    38    1
25    14    15    1
26    14    16    1
27    16    17    1
28    16    23    1
29    17    22    ar
30    17    18    ar
31    18    19    ar
32    18    39    1
33    19    20    ar
34    19    40    1
35    20    21    ar
36    20    41    1
37    21    22    ar
38    21    42    1
39    22    43    1
40    23    24    1
41    24    29    ar
42    24    25    ar
43    25    26    ar
44    25    44    1
45    26    27    ar
46    26    45    1
47    27    28    ar
48    27    46    1
49    28    29    ar
50    28    47    1
51    29    48    1
@<TRIPOS>SUBSTRUCTURE
1   ZINC000100004231 1     RESIDUE    1   A     ZIN   1
