@<TRIPOS>MOLECULE
ZINC000095921150
52    54    1     0     0
SMALL
USER_CHARGES
@<TRIPOS>ATOM
1      C1      4.7563   -3.8406    3.2846 C.3      1 ZINC000095921150   -0.1100
2      C2      3.5315   -3.9364    2.4119 C.ar     1 ZINC000095921150   -0.1800
3      C3      3.5654   -4.6700    1.2339 C.ar     1 ZINC000095921150   -0.0300
4      C4      2.4189   -4.7328    0.4619 C.ar     1 ZINC000095921150   -0.2300
5      C5      1.2779   -4.0627    0.8897 C.ar     1 ZINC000095921150    0.4200
6      N6      0.1178   -4.1174    0.1230 N.pl3    1 ZINC000095921150   -0.6700
7      C7      0.1262   -4.7678   -1.1022 C.ar     1 ZINC000095921150    0.2700
8      C8      0.1837   -4.0523   -2.2965 C.ar     1 ZINC000095921150   -0.2000
9      C9      0.1892   -4.7709   -3.4874 C.ar     1 ZINC000095921150    0.3600
10     N10     0.2455   -4.1017   -4.6998 N.pl3    1 ZINC000095921150   -0.7200
11     C11     0.2991   -2.6380   -4.7268 C.3      1 ZINC000095921150    0.1300
12     H12     0.8796   -2.2799   -3.8766 H        1 ZINC000095921150    0.1100
13     C13    -1.1210   -2.0740   -4.6485 C.3      1 ZINC000095921150   -0.1400
14     C14    -1.9358   -2.5766   -5.8420 C.3      1 ZINC000095921150   -0.1300
15     C15    -1.2745   -2.1144   -7.1419 C.3      1 ZINC000095921150   -0.1200
16     C16     0.1456   -2.6783   -7.2202 C.3      1 ZINC000095921150   -0.1400
17     C17     0.9605   -2.1757   -6.0268 C.3      1 ZINC000095921150    0.0200
18     H18     1.0004   -1.0866   -6.0468 H        1 ZINC000095921150    0.1600
19     N19     2.3240   -2.7172   -6.1019 N.4      1 ZINC000095921150   -0.6400
20     H20     2.7601   -2.4123   -6.9592 H        1 ZINC000095921150    0.4400
21     H21     2.8613   -2.3857   -5.3149 H        1 ZINC000095921150    0.4400
22     H22     2.2870   -3.7253   -6.0834 H        1 ZINC000095921150    0.4300
23     N23     0.1409   -6.1002   -3.4633 N.ar     1 ZINC000095921150   -0.2900
24     N24     0.0879   -6.7667   -2.3682 N.ar     1 ZINC000095921150   -0.1500
25     C25     0.0829   -6.1745   -1.1799 C.ar     1 ZINC000095921150   -0.0200
26     C26     0.0213   -6.9837    0.0518 C.2      1 ZINC000095921150    0.5800
27     N27     0.0994   -8.3273   -0.0201 N.am     1 ZINC000095921150   -0.8300
28     O28    -0.0998   -6.4386    1.1319 O.2      1 ZINC000095921150   -0.5100
29     N29     1.2853   -3.3734    2.0204 N.ar     1 ZINC000095921150   -0.5200
30     C30     2.3621   -3.2999    2.7788 C.ar     1 ZINC000095921150    0.1800
31     C31     2.3188   -2.5026    4.0569 C.3      1 ZINC000095921150   -0.1100
32     H32     4.7540   -4.6585    4.0051 H        1 ZINC000095921150    0.0700
33     H33     5.6503   -3.9054    2.6644 H        1 ZINC000095921150    0.0700
34     H34     4.7507   -2.8887    3.8156 H        1 ZINC000095921150    0.0700
35     H35     4.4665   -5.1800    0.9268 H        1 ZINC000095921150    0.1300
36     H36     2.4103   -5.2943   -0.4606 H        1 ZINC000095921150    0.1100
37     H37    -0.6966   -3.7006    0.4453 H        1 ZINC000095921150    0.4200
38     H38     0.2224   -2.9730   -2.2974 H        1 ZINC000095921150    0.1600
39     H39     0.2493   -4.6026   -5.5305 H        1 ZINC000095921150    0.4100
40     H40    -1.5921   -2.4034   -3.7224 H        1 ZINC000095921150    0.0900
41     H41    -1.0811   -0.9850   -4.6686 H        1 ZINC000095921150    0.0900
42     H42    -1.9757   -3.6657   -5.8219 H        1 ZINC000095921150    0.0700
43     H43    -2.9475   -2.1749   -5.7862 H        1 ZINC000095921150    0.0800
44     H44    -1.8550   -2.4724   -7.9922 H        1 ZINC000095921150    0.0900
45     H45    -1.2346   -1.0253   -7.1620 H        1 ZINC000095921150    0.0800
46     H46     0.1057   -3.7674   -7.2002 H        1 ZINC000095921150    0.0900
47     H47     0.6168   -2.3490   -8.1464 H        1 ZINC000095921150    0.1000
48     H48     0.1960   -8.7621   -0.8817 H        1 ZINC000095921150    0.4100
49     H49     0.0589   -8.8594    0.7899 H        1 ZINC000095921150    0.4100
50     H50     2.0046   -3.1479    4.8772 H        1 ZINC000095921150    0.0800
51     H51     3.3100   -2.1019    4.2689 H        1 ZINC000095921150    0.0800
52     H52     1.6103   -1.6813    3.9489 H        1 ZINC000095921150    0.0800
@<TRIPOS>BOND
1     1     2     1
2     1     32    1
3     1     33    1
4     1     34    1
5     2     30    ar
6     2     3     ar
7     3     4     ar
8     3     35    1
9     4     5     ar
10    4     36    1
11    5     6     1
12    5     29    ar
13    6     7     1
14    6     37    1
15    7     25    ar
16    7     8     ar
17    8     9     ar
18    8     38    1
19    9     10    1
20    9     23    ar
21    10    11    1
22    10    39    1
23    11    12    1
24    11    17    1
25    11    13    1
26    13    14    1
27    13    40    1
28    13    41    1
29    14    15    1
30    14    42    1
31    14    43    1
32    15    16    1
33    15    44    1
34    15    45    1
35    16    17    1
36    16    46    1
37    16    47    1
38    17    18    1
39    17    19    1
40    19    20    1
41    19    21    1
42    19    22    1
43    23    24    ar
44    24    25    ar
45    25    26    1
46    26    27    am
47    26    28    2
48    27    48    1
49    27    49    1
50    29    30    ar
51    30    31    1
52    31    50    1
53    31    51    1
54    31    52    1
@<TRIPOS>SUBSTRUCTURE
1   ZINC000095921150 1     RESIDUE    1   A     ZIN   1
