@<TRIPOS>MOLECULE
ZINC000001611146
  43   44    0    0    0
SMALL
USER_CHARGES
NO_NAME
@<TRIPOS>ATOM
    1 C1       -0.0173     1.4248     0.0099 C.3    1 <0>       0.0200
    2 O2        0.0021    -0.0041     0.0020 O.3    1 <0>      -0.3100
    3 C3        0.6060    -0.6073    -1.0561 C.ar   1 <0>       0.1100
    4 C4        1.1721     0.1631    -2.0608 C.ar   1 <0>      -0.1900
    5 C5        1.7861    -0.4435    -3.1367 C.ar   1 <0>      -0.0800
    6 C6        1.8392    -1.8375    -3.2157 C.ar   1 <0>      -0.0800
    7 C7        2.4950    -2.4879    -4.3637 C.2    1 <0>      -0.0800
    8 C8        3.0428    -1.7407    -5.3360 C.2    1 <0>      -0.1200
    9 C9        3.6985    -2.3910    -6.4840 C.ar   1 <0>       0.0200
   10 C10       3.7463    -3.7854    -6.5656 C.ar   1 <0>      -0.2300
   11 C11       4.3623    -4.3928    -7.6449 C.ar   1 <0>       0.1500
   12 O12       4.4088    -5.7496    -7.7252 O.3    1 <0>      -0.3000
   13 C13       3.8017    -6.4838    -6.6602 C.3    1 <0>       0.0200
   14 C14       4.9340    -3.6172    -8.6487 C.ar   1 <0>       0.0300
   15 O15       5.5391    -4.2177    -9.7090 O.3    1 <0>      -0.3100
   16 C16       4.7216    -4.5051   -10.8452 C.3    1 <0>       0.0400
   17 C17       4.8877    -2.2287    -8.5708 C.ar   1 <0>       0.1500
   18 O18       5.4469    -1.4742    -9.5545 O.3    1 <0>      -0.3000
   19 C19       5.3630    -0.0549    -9.4105 C.3    1 <0>       0.0200
   20 C20       4.2690    -1.6150    -7.4966 C.ar   1 <0>      -0.2200
   21 C21       1.2688    -2.6136    -2.2024 C.ar   1 <0>      -0.0900
   22 C22       0.6597    -1.9981    -1.1254 C.ar   1 <0>       0.0800
   23 O23       0.1038    -2.7499    -0.1378 O.3    1 <0>      -0.4900
   24 H24       1.0053     1.8021     0.0021 H      1 <0>       0.0600
   25 H25      -0.5445     1.7859    -0.8732 H      1 <0>       0.0600
   26 H26      -0.5275     1.7763     0.9067 H      1 <0>       0.1000
   27 H27       1.1317     1.2407    -2.0008 H      1 <0>       0.1400
   28 H28       2.2255     0.1589    -3.9181 H      1 <0>       0.1300
   29 H29       2.5352    -3.5655    -4.4233 H      1 <0>       0.1200
   30 H30       3.0026    -0.6631    -5.2764 H      1 <0>       0.1300
   31 H31       3.3031    -4.3879    -5.7866 H      1 <0>       0.1400
   32 H32       4.2894    -6.2292    -5.7192 H      1 <0>       0.0600
   33 H33       2.7433    -6.2300    -6.6011 H      1 <0>       0.0600
   34 H34       3.9093    -7.5521    -6.8478 H      1 <0>       0.1000
   35 H35       3.9134    -5.1748   -10.5513 H      1 <0>       0.0400
   36 H36       4.3015    -3.5777   -11.2345 H      1 <0>       0.0400
   37 H37       5.3262    -4.9820   -11.6166 H      1 <0>       0.0900
   38 H38       5.8466     0.4258   -10.2608 H      1 <0>       0.1000
   39 H39       4.3158     0.2450    -9.3708 H      1 <0>       0.0600
   40 H40       5.8626     0.2470    -8.4900 H      1 <0>       0.0600
   41 H41       4.2331    -0.5372    -7.4369 H      1 <0>       0.1400
   42 H42       1.3074    -3.6914    -2.2592 H      1 <0>       0.1400
   43 H43       0.7124    -2.9658     0.5820 H      1 <0>       0.3900
@<TRIPOS>BOND
   1    1    2 1
   2    1   24 1
   3    1   25 1
   4    1   26 1
   5    2    3 1
   6    3   22 ar
   7    3    4 ar
   8    4    5 ar
   9    4   27 1
  10    5    6 ar
  11    5   28 1
  12    6    7 1
  13    6   21 ar
  14    7    8 2
  15    7   29 1
  16    8    9 1
  17    8   30 1
  18    9   20 ar
  19    9   10 ar
  20   10   11 ar
  21   10   31 1
  22   11   12 1
  23   11   14 ar
  24   12   13 1
  25   13   32 1
  26   13   33 1
  27   13   34 1
  28   14   15 1
  29   14   17 ar
  30   15   16 1
  31   16   35 1
  32   16   36 1
  33   16   37 1
  34   17   18 1
  35   17   20 ar
  36   18   19 1
  37   19   38 1
  38   19   39 1
  39   19   40 1
  40   20   41 1
  41   21   22 ar
  42   21   42 1
  43   22   23 1
  44   23   43 1
