@<TRIPOS>MOLECULE
ZINC000000607911
51    54    1     0     0
SMALL
USER_CHARGES
@<TRIPOS>ATOM
1      C1     -0.0173    1.4248    0.0099 C.3      1 ZINC000000607911    0.0200
2      O2      0.0021   -0.0041    0.0020 O.3      1 ZINC000000607911   -0.3000
3      C3     -1.2010   -0.6378    0.0101 C.ar     1 ZINC000000607911    0.1100
4      C4     -2.3726    0.1035    0.0195 C.ar     1 ZINC000000607911   -0.1700
5      C5     -3.5951   -0.5370    0.0208 C.ar     1 ZINC000000607911   -0.0600
6      C6     -3.6509   -1.9288    0.0001 C.ar     1 ZINC000000607911   -0.0500
7      C7     -2.4761   -2.6760    0.0045 C.ar     1 ZINC000000607911   -0.1600
8      C8     -1.2525   -2.0297    0.0031 C.ar     1 ZINC000000607911    0.0900
9      O9     -0.1010   -2.7531    0.0049 O.3      1 ZINC000000607911   -0.3100
10     C10    -0.2289   -4.1763    0.0083 C.3      1 ZINC000000607911    0.0300
11     C11    -4.9722   -2.5984   -0.0560 C.ar     1 ZINC000000607911   -0.0100
12     C12    -5.0839   -3.9505    0.2657 C.ar     1 ZINC000000607911    0.0700
13     O13    -3.9819   -4.6654    0.6164 O.3      1 ZINC000000607911   -0.3200
14     C14    -3.6460   -4.7003    2.0049 C.3      1 ZINC000000607911    0.0300
15     C15    -6.3323   -4.5609    0.2252 C.ar     1 ZINC000000607911    0.1200
16     O16    -6.4584   -5.8777    0.5408 O.3      1 ZINC000000607911   -0.3100
17     C17    -7.7718   -6.4372    0.4771 C.3      1 ZINC000000607911    0.0200
18     C18    -7.4455   -3.8246   -0.1366 C.ar     1 ZINC000000607911   -0.2000
19     C19    -7.3352   -2.4779   -0.4642 C.ar     1 ZINC000000607911   -0.0200
20     C20    -6.1022   -1.8638   -0.4217 C.ar     1 ZINC000000607911   -0.0900
21     C21    -5.9498   -0.4110   -0.7896 C.3      1 ZINC000000607911    0.1400
22     H22    -5.6729   -0.3316   -1.8408 H        1 ZINC000000607911    0.0600
23     C23    -4.8721    0.2579    0.0604 C.3      1 ZINC000000607911   -0.0700
24     N24    -7.2283    0.2803   -0.5689 N.3      1 ZINC000000607911   -0.5300
25     C25    -7.1110    1.7132   -0.8709 C.3      1 ZINC000000607911    0.0200
26     C26    -8.2957   -0.3367   -1.3586 C.3      1 ZINC000000607911    0.0500
27     C27    -8.5832   -1.7464   -0.8702 C.3      1 ZINC000000607911   -0.0800
28     H28     1.0053    1.8021    0.0021 H        1 ZINC000000607911    0.1000
29     H29    -0.5445    1.7859   -0.8732 H        1 ZINC000000607911    0.0600
30     H30    -0.5275    1.7763    0.9067 H        1 ZINC000000607911    0.0600
31     H31    -2.3286    1.1826    0.0261 H        1 ZINC000000607911    0.1400
32     H32    -2.5196   -3.7551    0.0049 H        1 ZINC000000607911    0.1700
33     H33    -0.7733   -4.4901    0.8990 H        1 ZINC000000607911    0.0500
34     H34    -0.7731   -4.4943   -0.8810 H        1 ZINC000000607911    0.0600
35     H35     0.7621   -4.6302    0.0095 H        1 ZINC000000607911    0.1000
36     H36    -3.4624   -3.6862    2.3599 H        1 ZINC000000607911    0.0500
37     H37    -4.4705   -5.1383    2.5674 H        1 ZINC000000607911    0.0500
38     H38    -2.7488   -5.3028    2.1467 H        1 ZINC000000607911    0.0900
39     H39    -7.7315   -7.4912    0.7519 H        1 ZINC000000607911    0.1000
40     H40    -8.4268   -5.9064    1.1680 H        1 ZINC000000607911    0.0600
41     H41    -8.1590   -6.3408   -0.5372 H        1 ZINC000000607911    0.0600
42     H42    -8.4137   -4.3023   -0.1656 H        1 ZINC000000607911    0.1300
43     H43    -5.2197    0.3280    1.0911 H        1 ZINC000000607911    0.0900
44     H44    -4.6830    1.2605   -0.3231 H        1 ZINC000000607911    0.0800
45     H45    -6.8194    1.8421   -1.9132 H        1 ZINC000000607911    0.0300
46     H46    -8.0709    2.2004   -0.6993 H        1 ZINC000000607911    0.0700
47     H47    -6.3559    2.1602   -0.2244 H        1 ZINC000000607911    0.0700
48     H48    -9.2004    0.2648   -1.2705 H        1 ZINC000000607911    0.0800
49     H49    -7.9917   -0.3746   -2.4047 H        1 ZINC000000607911    0.0400
50     H50    -9.0747   -2.3030   -1.6681 H        1 ZINC000000607911    0.0800
51     H51    -9.2554   -1.6931   -0.0138 H        1 ZINC000000607911    0.0900
@<TRIPOS>BOND
1     1     2     1
2     1     28    1
3     1     29    1
4     1     30    1
5     2     3     1
6     3     8     ar
7     3     4     ar
8     4     5     ar
9     4     31    1
10    5     23    1
11    5     6     ar
12    6     7     ar
13    6     11    1
14    7     8     ar
15    7     32    1
16    8     9     1
17    9     10    1
18    10    33    1
19    10    34    1
20    10    35    1
21    11    20    ar
22    11    12    ar
23    12    13    1
24    12    15    ar
25    13    14    1
26    14    36    1
27    14    37    1
28    14    38    1
29    15    16    1
30    15    18    ar
31    16    17    1
32    17    39    1
33    17    40    1
34    17    41    1
35    18    19    ar
36    18    42    1
37    19    27    1
38    19    20    ar
39    20    21    1
40    21    22    1
41    21    23    1
42    21    24    1
43    23    43    1
44    23    44    1
45    24    25    1
46    24    26    1
47    25    45    1
48    25    46    1
49    25    47    1
50    26    27    1
51    26    48    1
52    26    49    1
53    27    50    1
54    27    51    1
@<TRIPOS>SUBSTRUCTURE
1   ZINC000000607911 1     RESIDUE    1   A     ZIN   1
