@<TRIPOS>MOLECULE
ZINC000008603072
41    44    1     0     0
SMALL
USER_CHARGES
@<TRIPOS>ATOM
1      C1     -0.0184    1.5028    0.0103 C.3      1 ZINC000008603072   -0.1200
2      C2      0.0021   -0.0041    0.0020 C.ar     1 ZINC000008603072   -0.0500
3      C3      0.0057   -0.6863   -1.2016 C.ar     1 ZINC000008603072   -0.1300
4      C4      0.0249   -2.0659   -1.2158 C.ar     1 ZINC000008603072   -0.0600
5      C5      0.0405   -2.7727   -0.0132 C.ar     1 ZINC000008603072   -0.0700
6      C6      0.0616   -4.2535   -0.0214 C.2      1 ZINC000008603072    0.4400
7      N7      0.0708   -4.9116    1.1304 N.2      1 ZINC000008603072   -0.5200
8      C8      0.0894   -6.2479    1.1387 C.2      1 ZINC000008603072    0.3600
9      C9      0.1018   -7.1913    2.1580 C.2      1 ZINC000008603072   -0.3300
10     C10     0.1189   -8.4556    1.5669 C.2      1 ZINC000008603072    0.5500
11     O11     0.1325   -9.5210    2.1617 O.2      1 ZINC000008603072   -0.5200
12     N12     0.1172   -8.3008    0.2285 N.am     1 ZINC000008603072   -0.5000
13     N13     0.0989   -6.9325   -0.0591 N.pl3    1 ZINC000008603072   -0.3300
14     C14     0.0889   -6.2262   -1.2272 C.2      1 ZINC000008603072    0.4100
15     S15     0.1005   -7.0688   -2.7747 S.3      1 ZINC000008603072    0.0400
16     C16     0.0807   -5.6537   -3.9031 C.3      1 ZINC000008603072   -0.0600
17     C17     0.0874   -6.1468   -5.3272 C.ar     1 ZINC000008603072   -0.0800
18     C18     1.2878   -6.3616   -5.9783 C.ar     1 ZINC000008603072   -0.0900
19     C19     1.2945   -6.8142   -7.2843 C.ar     1 ZINC000008603072   -0.0900
20     C20     0.0998   -7.0522   -7.9397 C.ar     1 ZINC000008603072   -0.0800
21     Br21    0.1083   -7.6720   -9.7262 Br       1 ZINC000008603072   -0.0400
22     C22    -1.1010   -6.8371   -7.2877 C.ar     1 ZINC000008603072   -0.0900
23     C23    -1.1067   -6.3895   -5.9800 C.ar     1 ZINC000008603072   -0.0900
24     N24     0.0654   -4.9031   -1.1879 N.2      1 ZINC000008603072   -0.5600
25     C25     0.0368   -2.0790    1.1970 C.ar     1 ZINC000008603072   -0.0500
26     C26     0.0229   -0.6993    1.1980 C.ar     1 ZINC000008603072   -0.1300
27     H27     1.0042    1.8801    0.0026 H        1 ZINC000008603072    0.0800
28     H28    -0.5455    1.8639   -0.8728 H        1 ZINC000008603072    0.0700
29     H29    -0.5286    1.8543    0.9071 H        1 ZINC000008603072    0.0700
30     H30    -0.0068   -0.1380   -2.1319 H        1 ZINC000008603072    0.1300
31     H31     0.0273   -2.5974   -2.1559 H        1 ZINC000008603072    0.1400
32     H32     0.0991   -6.9838    3.2179 H        1 ZINC000008603072    0.1800
33     H33     0.1267   -9.0174   -0.4252 H        1 ZINC000008603072    0.4400
34     H34    -0.8176   -5.0618   -3.7278 H        1 ZINC000008603072    0.1200
35     H35     0.9622   -5.0370   -3.7280 H        1 ZINC000008603072    0.1200
36     H36     2.2205   -6.1754   -5.4667 H        1 ZINC000008603072    0.1400
37     H37     2.2323   -6.9817   -7.7931 H        1 ZINC000008603072    0.1400
38     H38    -2.0340   -7.0228   -7.7990 H        1 ZINC000008603072    0.1400
39     H39    -2.0442   -6.2215   -5.4709 H        1 ZINC000008603072    0.1400
40     H40     0.0488   -2.6207    2.1313 H        1 ZINC000008603072    0.1400
41     H41     0.0203   -0.1611    2.1343 H        1 ZINC000008603072    0.1300
@<TRIPOS>BOND
1     1     2     1
2     1     27    1
3     1     28    1
4     1     29    1
5     2     26    ar
6     2     3     ar
7     3     4     ar
8     3     30    1
9     4     5     ar
10    4     31    1
11    5     6     1
12    5     25    ar
13    6     24    1
14    6     7     2
15    7     8     1
16    8     13    1
17    8     9     2
18    9     10    1
19    9     32    1
20    10    11    2
21    10    12    am
22    12    13    1
23    12    33    1
24    13    14    1
25    14    15    1
26    14    24    2
27    15    16    1
28    16    17    1
29    16    34    1
30    16    35    1
31    17    23    ar
32    17    18    ar
33    18    19    ar
34    18    36    1
35    19    20    ar
36    19    37    1
37    20    21    1
38    20    22    ar
39    22    23    ar
40    22    38    1
41    23    39    1
42    25    26    ar
43    25    40    1
44    26    41    1
@<TRIPOS>SUBSTRUCTURE
1   ZINC000008603072 1     RESIDUE    1   A     ZIN   1
