@<TRIPOS>MOLECULE
ZINC000029044322
  41   44    0    0    0
SMALL
USER_CHARGES
NO_NAME
@<TRIPOS>ATOM
    1 C1       -3.8073    -1.8115    -6.4953 C.3    1 <0>       0.0200
    2 O2       -3.3191    -2.4837    -5.3325 O.3    1 <0>      -0.3100
    3 C3       -1.9779    -2.4518    -5.1193 C.ar   1 <0>       0.1600
    4 C4       -1.1514    -1.7744    -6.0212 C.ar   1 <0>      -0.1900
    5 C5        0.1949    -1.7278    -5.8303 C.ar   1 <0>      -0.0400
    6 C6        0.7653    -2.3650    -4.7176 C.ar   1 <0>      -0.1500
    7 C7       -0.0622    -3.0551    -3.7961 C.ar   1 <0>       0.2200
    8 C8       -1.4503    -3.0818    -4.0157 C.ar   1 <0>      -0.1500
    9 N9        0.4680    -3.6668    -2.7318 N.ar   1 <0>      -0.4700
   10 C10       1.7674    -3.6562    -2.4948 C.ar   1 <0>       0.3200
   11 O11       2.5184    -4.1911    -1.5091 O.3    1 <0>      -0.1900
   12 C12       3.8227    -3.9135    -1.6907 C.2    1 <0>       0.0300
   13 C13       3.9919    -3.1850    -2.8008 C.2    1 <0>      -0.2000
   14 C14       2.6520    -2.9897    -3.3684 C.ar   1 <0>      -0.1900
   15 C15       2.1603    -2.3325    -4.4960 C.ar   1 <0>       0.2600
   16 N16       3.0098    -1.6720    -5.3683 N.pl3  1 <0>      -0.6900
   17 C17       3.4418    -2.3030    -6.5288 C.ar   1 <0>       0.2400
   18 C18       3.0026    -3.5919    -6.8233 C.ar   1 <0>      -0.2000
   19 C19       3.4250    -4.2157    -7.9622 C.ar   1 <0>      -0.0100
   20 C20       4.3010    -3.5574    -8.8353 C.ar   1 <0>      -0.2300
   21 C21       4.7573    -4.2238   -10.0608 C.2    1 <0>       0.4000
   22 C22       5.5846    -3.4662   -11.0672 C.3    1 <0>      -0.2000
   23 O23       4.4685    -5.3844   -10.2637 O.2    1 <0>      -0.4700
   24 C24       4.7399    -2.2611    -8.5354 C.ar   1 <0>      -0.0300
   25 C25       4.3084    -1.6426    -7.3970 C.ar   1 <0>      -0.2000
   26 H26      -3.5443    -0.7551    -6.4416 H      1 <0>       0.0600
   27 H27      -3.3587    -2.2529    -7.3853 H      1 <0>       0.0600
   28 H28      -4.8913    -1.9140    -6.5458 H      1 <0>       0.1100
   29 H29      -1.5864    -1.2830    -6.8789 H      1 <0>       0.1400
   30 H30       0.8233    -1.2018    -6.5337 H      1 <0>       0.1400
   31 H31      -2.0988    -3.6017    -3.3261 H      1 <0>       0.1500
   32 H32       4.6189    -4.2323    -1.0342 H      1 <0>       0.2200
   33 H33       4.9256    -2.8159    -3.1989 H      1 <0>       0.1600
   34 H34       3.3030    -0.7691    -5.1692 H      1 <0>       0.4200
   35 H35       2.3273    -4.0985    -6.1497 H      1 <0>       0.1200
   36 H36       3.0846    -5.2151    -8.1894 H      1 <0>       0.1300
   37 H37       5.6739    -2.4258   -10.7546 H      1 <0>       0.0800
   38 H38       6.5768    -3.9127   -11.1316 H      1 <0>       0.0900
   39 H39       5.1013    -3.5122   -12.0431 H      1 <0>       0.0900
   40 H40       5.4151    -1.7501    -9.2058 H      1 <0>       0.1400
   41 H41       4.6459    -0.6432    -7.1653 H      1 <0>       0.1300
@<TRIPOS>BOND
   1    1    2 1
   2    1   26 1
   3    1   27 1
   4    1   28 1
   5    2    3 1
   6    3    8 ar
   7    3    4 ar
   8    4    5 ar
   9    4   29 1
  10    5    6 ar
  11    5   30 1
  12    6   15 ar
  13    6    7 ar
  14    7    8 ar
  15    7    9 ar
  16    8   31 1
  17    9   10 ar
  18   10   14 ar
  19   10   11 1
  20   11   12 1
  21   12   13 2
  22   12   32 1
  23   13   14 1
  24   13   33 1
  25   14   15 ar
  26   15   16 1
  27   16   17 1
  28   16   34 1
  29   17   25 ar
  30   17   18 ar
  31   18   19 ar
  32   18   35 1
  33   19   20 ar
  34   19   36 1
  35   20   21 1
  36   20   24 ar
  37   21   22 1
  38   21   23 2
  39   22   37 1
  40   22   38 1
  41   22   39 1
  42   24   25 ar
  43   24   40 1
  44   25   41 1
