@<TRIPOS>MOLECULE
ZINC000042805012
93    96    1     0     0
SMALL
USER_CHARGES
@<TRIPOS>ATOM
1      C1      0.0725    0.9619    0.7243 C.3      1 ZINC000042805012   -0.1500
2      C2      0.2092   -0.5363    0.6367 C.2      1 ZINC000042805012    0.4500
3      O3      0.3866   -1.1864    1.6396 O.2      1 ZINC000042805012   -0.5000
4      O4      0.1337   -1.1486   -0.5554 O.3      1 ZINC000042805012   -0.3300
5      C5      0.2742   -2.5938   -0.5642 C.3      1 ZINC000042805012    0.1000
6      H6      0.9176   -2.9003    0.2605 H        1 ZINC000042805012    0.1000
7      C7     -1.1023   -3.2391   -0.4018 C.3      1 ZINC000042805012    0.0700
8      H8     -0.9992   -4.3242   -0.4114 H        1 ZINC000042805012    0.1000
9      O9     -1.6895   -2.8188    0.8579 O.3      1 ZINC000042805012   -0.3400
10     C10    -2.5250   -3.6808    1.4585 C.2      1 ZINC000042805012    0.4600
11     C11    -3.1724   -3.3137    2.7689 C.3      1 ZINC000042805012   -0.1500
12     O12    -2.7580   -4.7511    0.9484 O.2      1 ZINC000042805012   -0.5200
13     C13    -2.0037   -2.8009   -1.5587 C.3      1 ZINC000042805012   -0.1300
14     C14    -1.3854   -3.2609   -2.8793 C.3      1 ZINC000042805012   -0.1000
15     C15    -0.0016   -2.6282   -3.0516 C.3      1 ZINC000042805012   -0.0400
16     C16    -0.1432   -1.1049   -3.0688 C.3      1 ZINC000042805012   -0.1600
17     C17     0.5893   -3.0710   -4.3802 C.3      1 ZINC000042805012   -0.0400
18     H18     0.3459   -4.1254   -4.5111 H        1 ZINC000042805012    0.0800
19     C19    -0.0596   -2.3059   -5.5309 C.3      1 ZINC000042805012   -0.1200
20     C20     0.6161   -2.6224   -6.8765 C.3      1 ZINC000042805012   -0.1100
21     C21     2.0770   -2.2609   -6.7463 C.3      1 ZINC000042805012   -0.0500
22     C22     2.1976   -0.8515   -6.1632 C.3      1 ZINC000042805012   -0.1400
23     C23     2.7248   -3.2642   -5.7503 C.3      1 ZINC000042805012   -0.0600
24     H24     2.5405   -4.2942   -6.0554 H        1 ZINC000042805012    0.0900
25     C25     4.2069   -2.9094   -5.8933 C.3      1 ZINC000042805012   -0.1200
26     C26     4.3697   -2.7275   -7.4290 C.3      1 ZINC000042805012   -0.1100
27     C27     2.9630   -2.3710   -7.9770 C.3      1 ZINC000042805012   -0.1000
28     H28     2.6012   -3.1614   -8.6346 H        1 ZINC000042805012    0.0800
29     C29     3.0062   -1.0369   -8.7247 C.3      1 ZINC000042805012    0.1100
30     C30     1.5862   -0.6284   -9.1216 C.3      1 ZINC000042805012   -0.1500
31     O31     3.5712   -0.0342   -7.8777 O.3      1 ZINC000042805012   -0.5400
32     C32     3.8646   -1.1848   -9.9826 C.3      1 ZINC000042805012    0.0800
33     H33     3.4834   -2.0071  -10.5880 H        1 ZINC000042805012    0.1000
34     O34     5.2165   -1.4563   -9.6074 O.3      1 ZINC000042805012   -0.5500
35     C35     3.8107    0.1123  -10.7923 C.3      1 ZINC000042805012   -0.1500
36     C36     4.5660   -0.0769  -12.1093 C.3      1 ZINC000042805012   -0.1100
37     C37     4.5121    1.2202  -12.9190 C.3      1 ZINC000042805012   -0.1000
38     C38     5.2699    2.3196  -12.1721 C.3      1 ZINC000042805012   -0.1500
39     C39     5.1584    0.9945  -14.2873 C.3      1 ZINC000042805012   -0.1500
40     C40     2.0894   -2.9434   -4.4276 C.2      1 ZINC000042805012   -0.0600
41     C41     2.8218   -2.6191   -3.4085 C.2      1 ZINC000042805012   -0.1900
42     C42     2.2474   -2.2752   -2.0648 C.3      1 ZINC000042805012    0.1300
43     H43     2.1162   -1.1957   -1.9907 H        1 ZINC000042805012    0.1100
44     O44     3.1509   -2.7264   -1.0215 O.3      1 ZINC000042805012   -0.3500
45     C45     4.0918   -1.8603   -0.6137 C.2      1 ZINC000042805012    0.4600
46     C46     5.0652   -2.2584    0.4657 C.3      1 ZINC000042805012   -0.1500
47     O47     4.1582   -0.7616   -1.1119 O.2      1 ZINC000042805012   -0.5100
48     C48     0.9003   -3.0362   -1.8897 C.3      1 ZINC000042805012   -0.0600
49     H49     1.0862   -4.1097   -1.8565 H        1 ZINC000042805012    0.1100
50     H50     1.0558    1.4226    0.6300 H        1 ZINC000042805012    0.1000
51     H51    -0.5730    1.3155   -0.0798 H        1 ZINC000042805012    0.0900
52     H52    -0.3643    1.2313    1.6859 H        1 ZINC000042805012    0.1000
53     H53    -2.8447   -2.3186    3.0698 H        1 ZINC000042805012    0.0900
54     H54    -4.2562   -3.3198    2.6530 H        1 ZINC000042805012    0.1000
55     H55    -2.8845   -4.0371    3.5317 H        1 ZINC000042805012    0.1100
56     H56    -2.9900   -3.2501   -1.4423 H        1 ZINC000042805012    0.0700
57     H57    -2.0948   -1.7147   -1.5581 H        1 ZINC000042805012    0.0900
58     H58    -1.2895   -4.3467   -2.8758 H        1 ZINC000042805012    0.0700
59     H59    -2.0281   -2.9574   -3.7056 H        1 ZINC000042805012    0.0800
60     H60    -0.6892   -0.7807   -2.1828 H        1 ZINC000042805012    0.0900
61     H61     0.8464   -0.6480   -3.0732 H        1 ZINC000042805012    0.0600
62     H62    -0.6878   -0.8007   -3.9627 H        1 ZINC000042805012    0.0600
63     H63    -1.1134   -2.5782   -5.5895 H        1 ZINC000042805012    0.0600
64     H64     0.0196   -1.2363   -5.3362 H        1 ZINC000042805012    0.0800
65     H65     0.5161   -3.6845   -7.1003 H        1 ZINC000042805012    0.0600
66     H66     0.1576   -2.0313   -7.6692 H        1 ZINC000042805012    0.0700
67     H67     1.6882   -0.8118   -5.2003 H        1 ZINC000042805012    0.0500
68     H68     3.2503   -0.6031   -6.0277 H        1 ZINC000042805012    0.0600
69     H69     1.7403   -0.1354   -6.8460 H        1 ZINC000042805012    0.0700
70     H70     4.4344   -1.9817   -5.3682 H        1 ZINC000042805012    0.0700
71     H71     4.8355   -3.7232   -5.5319 H        1 ZINC000042805012    0.0600
72     H72     5.0691   -1.9180   -7.6380 H        1 ZINC000042805012    0.0700
73     H73     4.7234   -3.6545   -7.8803 H        1 ZINC000042805012    0.0700
74     H74     0.9746   -0.5230   -8.2255 H        1 ZINC000042805012    0.0800
75     H75     1.6169    0.3221   -9.6543 H        1 ZINC000042805012    0.0700
76     H76     1.1552   -1.3932   -9.7676 H        1 ZINC000042805012    0.0700
77     H77     4.4728   -0.2275   -7.5867 H        1 ZINC000042805012    0.3700
78     H78     5.6208   -0.7647   -9.0658 H        1 ZINC000042805012    0.3700
79     H79     2.7718    0.3664  -11.0025 H        1 ZINC000042805012    0.0700
80     H80     4.2731    0.9170  -10.2206 H        1 ZINC000042805012    0.0700
81     H81     5.6049   -0.3310  -11.8991 H        1 ZINC000042805012    0.0700
82     H82     4.1037   -0.8816  -12.6810 H        1 ZINC000042805012    0.0600
83     H83     3.4733    1.5218  -13.0532 H        1 ZINC000042805012    0.0700
84     H84     6.3087    2.0179  -12.0379 H        1 ZINC000042805012    0.0500
85     H85     5.2315    3.2436  -12.7489 H        1 ZINC000042805012    0.0500
86     H86     4.8095    2.4803  -11.1973 H        1 ZINC000042805012    0.0600
87     H87     4.6185    0.2113  -14.8194 H        1 ZINC000042805012    0.0500
88     H88     5.1200    1.9185  -14.8641 H        1 ZINC000042805012    0.0500
89     H89     6.1972    0.6929  -14.1531 H        1 ZINC000042805012    0.0500
90     H90     3.8945   -2.5956   -3.5316 H        1 ZINC000042805012    0.1100
91     H91     4.8514   -3.2767    0.7903 H        1 ZINC000042805012    0.0900
92     H92     6.0816   -2.2073    0.0751 H        1 ZINC000042805012    0.1100
93     H93     4.9668   -1.5789    1.3123 H        1 ZINC000042805012    0.1000
@<TRIPOS>BOND
1     1     2     1
2     1     50    1
3     1     51    1
4     1     52    1
5     2     3     2
6     2     4     1
7     4     5     1
8     5     6     1
9     5     48    1
10    5     7     1
11    7     8     1
12    7     9     1
13    7     13    1
14    9     10    1
15    10    11    1
16    10    12    2
17    11    53    1
18    11    54    1
19    11    55    1
20    13    14    1
21    13    56    1
22    13    57    1
23    14    15    1
24    14    58    1
25    14    59    1
26    15    48    1
27    15    16    1
28    15    17    1
29    16    60    1
30    16    61    1
31    16    62    1
32    17    18    1
33    17    40    1
34    17    19    1
35    19    20    1
36    19    63    1
37    19    64    1
38    20    21    1
39    20    65    1
40    20    66    1
41    21    27    1
42    21    22    1
43    21    23    1
44    22    67    1
45    22    68    1
46    22    69    1
47    23    24    1
48    23    25    1
49    23    40    1
50    25    26    1
51    25    70    1
52    25    71    1
53    26    27    1
54    26    72    1
55    26    73    1
56    27    28    1
57    27    29    1
58    29    30    1
59    29    31    1
60    29    32    1
61    30    74    1
62    30    75    1
63    30    76    1
64    31    77    1
65    32    33    1
66    32    34    1
67    32    35    1
68    34    78    1
69    35    36    1
70    35    79    1
71    35    80    1
72    36    37    1
73    36    81    1
74    36    82    1
75    37    38    1
76    37    39    1
77    37    83    1
78    38    84    1
79    38    85    1
80    38    86    1
81    39    87    1
82    39    88    1
83    39    89    1
84    40    41    2
85    41    42    1
86    41    90    1
87    42    43    1
88    42    44    1
89    42    48    1
90    44    45    1
91    45    46    1
92    45    47    2
93    46    91    1
94    46    92    1
95    46    93    1
96    48    49    1
@<TRIPOS>SUBSTRUCTURE
1   ZINC000042805012 1     RESIDUE    1   A     ZIN   1
