@<TRIPOS>MOLECULE
ZINC000002039864
40    42    1     0     0
SMALL
USER_CHARGES
@<TRIPOS>ATOM
1      C1     -0.0157    1.3058    0.0092 C.2      1 ZINC000002039864   -0.1900
2      C2      0.0021   -0.0041    0.0020 C.2      1 ZINC000002039864   -0.0900
3      C3     -1.2768   -0.7768    0.0039 C.3      1 ZINC000002039864   -0.0800
4      C4     -1.3588   -1.6200   -1.2875 C.3      1 ZINC000002039864   -0.1100
5      C5     -0.9203   -0.7199   -2.4606 C.3      1 ZINC000002039864   -0.0100
6      H6     -1.3023    0.3010   -2.4542 H        1 ZINC000002039864    0.1200
7      O7     -0.8162   -1.4154   -3.7175 O.3      1 ZINC000002039864   -0.3600
8      C8      0.4443   -1.0001   -3.1623 C.3      1 ZINC000002039864    0.0300
9      C9      1.1486    0.1834   -3.8288 C.3      1 ZINC000002039864   -0.1300
10     C10     1.3798   -2.0275   -2.5055 C.3      1 ZINC000002039864   -0.1000
11     C11     2.6268   -1.2705   -2.0189 C.3      1 ZINC000002039864   -0.1200
12     C12     2.3719   -0.2865   -0.9213 C.3      1 ZINC000002039864   -0.0800
13     H13     2.1969    0.7135   -1.3182 H        1 ZINC000002039864    0.0800
14     C14     1.2837   -0.7317   -0.0141 C.3      1 ZINC000002039864   -0.0800
15     H15     1.1070   -1.7960   -0.1699 H        1 ZINC000002039864    0.0800
16     C16     2.1949   -0.5591    1.1917 C.3      1 ZINC000002039864   -0.1200
17     C17     3.3437   -0.2643    0.2523 C.3      1 ZINC000002039864   -0.0800
18     C18     4.3854   -1.3839    0.2036 C.3      1 ZINC000002039864   -0.1300
19     C19     3.9701    1.1130    0.4791 C.3      1 ZINC000002039864   -0.1300
20     H20     0.9122    1.8585    0.0033 H        1 ZINC000002039864    0.1000
21     H21    -0.9582    1.8330    0.0166 H        1 ZINC000002039864    0.1000
22     H22    -1.3033   -1.4357    0.8718 H        1 ZINC000002039864    0.0800
23     H23    -2.1197   -0.0867    0.0428 H        1 ZINC000002039864    0.0700
24     H24    -0.6922   -2.4790   -1.2112 H        1 ZINC000002039864    0.0800
25     H25    -2.3831   -1.9584   -1.4438 H        1 ZINC000002039864    0.0800
26     H26     0.4819    0.6367   -4.5624 H        1 ZINC000002039864    0.0600
27     H27     1.4124    0.9223   -3.0721 H        1 ZINC000002039864    0.0800
28     H28     2.0532   -0.1656   -4.3267 H        1 ZINC000002039864    0.0700
29     H29     0.8782   -2.4974   -1.6595 H        1 ZINC000002039864    0.0800
30     H30     1.6675   -2.7854   -3.2341 H        1 ZINC000002039864    0.0800
31     H31     3.3566   -1.9992   -1.6660 H        1 ZINC000002039864    0.0700
32     H32     3.0591   -0.7378   -2.8659 H        1 ZINC000002039864    0.0700
33     H33     1.9180    0.2853    1.8230 H        1 ZINC000002039864    0.0800
34     H34     2.3372   -1.4790    1.7588 H        1 ZINC000002039864    0.0700
35     H35     3.8809   -2.3501    0.2096 H        1 ZINC000002039864    0.0600
36     H36     4.9782   -1.2892   -0.7062 H        1 ZINC000002039864    0.0600
37     H37     5.0391   -1.3099    1.0726 H        1 ZINC000002039864    0.0600
38     H38     4.6434    1.0694    1.3352 H        1 ZINC000002039864    0.0600
39     H39     4.5295    1.4084   -0.4085 H        1 ZINC000002039864    0.0600
40     H40     3.1836    1.8425    0.6723 H        1 ZINC000002039864    0.0600
@<TRIPOS>BOND
1     1     2     2
2     1     20    1
3     1     21    1
4     2     14    1
5     2     3     1
6     3     4     1
7     3     22    1
8     3     23    1
9     4     5     1
10    4     24    1
11    4     25    1
12    5     6     1
13    5     8     1
14    5     7     1
15    7     8     1
16    8     9     1
17    8     10    1
18    9     26    1
19    9     27    1
20    9     28    1
21    10    11    1
22    10    29    1
23    10    30    1
24    11    12    1
25    11    31    1
26    11    32    1
27    12    13    1
28    12    17    1
29    12    14    1
30    14    15    1
31    14    16    1
32    16    17    1
33    16    33    1
34    16    34    1
35    17    18    1
36    17    19    1
37    18    35    1
38    18    36    1
39    18    37    1
40    19    38    1
41    19    39    1
42    19    40    1
@<TRIPOS>SUBSTRUCTURE
1   ZINC000002039864 1     RESIDUE    1   A     ZIN   1
