@<TRIPOS>MOLECULE
ZINC000003869685
  31   33    0    0    0
SMALL
USER_CHARGES
NO_NAME
@<TRIPOS>ATOM
    1 O1       -0.9038     1.1636    -0.0631 O.2    1 <0>      -0.5400
    2 C2       -0.5695     2.3377    -0.0199 C.2    1 <0>       0.4200
    3 C3       -1.5293     3.3587     0.0376 C.2    1 <0>      -0.4900
    4 C4       -1.1408     4.6800     0.0810 C.2    1 <0>       0.3200
    5 O5       -2.0957     5.6392     0.1448 O.3    1 <0>      -0.6800
    6 C6        0.2045     5.0679     0.0621 C.2    1 <0>      -0.1500
    7 C7        1.2046     4.1451     0.0031 C.2    1 <0>       0.1000
    8 O8        2.4995     4.5373    -0.0408 O.3    1 <0>      -0.2900
    9 C9        3.4781     3.6588     0.5261 C.3    1 <0>       0.1100
   10 C10       3.3163     3.6169     2.0238 C.ar   1 <0>      -0.1200
   11 C11       4.2964     3.0373     2.8072 C.ar   1 <0>      -0.1000
   12 C12       4.1524     2.9959     4.1819 C.ar   1 <0>      -0.1300
   13 C13       3.0242     3.5366     4.7767 C.ar   1 <0>       0.0900
   14 O14       2.8813     3.4971     6.1286 O.3    1 <0>      -0.4900
   15 C15       2.0374     4.1207     3.9878 C.ar   1 <0>       0.0900
   16 O16       0.9282     4.6533     4.5671 O.3    1 <0>      -0.4800
   17 C17       2.1903     4.1635     2.6116 C.ar   1 <0>      -0.1100
   18 C18       3.2635     2.2729    -0.0502 C.2    1 <0>       0.3500
   19 O19       4.1810     1.6140    -0.4787 O.2    1 <0>      -0.4200
   20 C20       1.8587     1.7638    -0.0605 C.2    1 <0>       0.0800
   21 O21       1.5820     0.4464    -0.1010 O.3    1 <0>      -0.4100
   22 C22       0.8543     2.7208    -0.0203 C.2    1 <0>      -0.1600
   23 H23      -2.5797     3.1077     0.0475 H      1 <0>       0.1100
   24 H24       0.4538     6.1183     0.0946 H      1 <0>       0.1300
   25 H25       4.4783     4.0113     0.2743 H      1 <0>       0.1600
   26 H26       5.1764     2.6154     2.3447 H      1 <0>       0.1300
   27 H27       4.9194     2.5418     4.7918 H      1 <0>       0.1400
   28 H28       3.2488     4.2661     6.5855 H      1 <0>       0.3900
   29 H29       1.0165     5.5875     4.8006 H      1 <0>       0.3900
   30 H30       1.4261     4.6161     1.9972 H      1 <0>       0.1600
   31 H31       2.3350    -0.1599    -0.1234 H      1 <0>       0.4000
@<TRIPOS>BOND
   1    1    2 2
   2    2   22 1
   3    2    3 1
   4    3    4 2
   5    3   23 1
   6    4    5 1
   7    4    6 1
   8    6    7 2
   9    6   24 1
  10    7   22 1
  11    7    8 1
  12    8    9 1
  13    9   10 1
  14    9   18 1
  15    9   25 1
  16   10   17 ar
  17   10   11 ar
  18   11   12 ar
  19   11   26 1
  20   12   13 ar
  21   12   27 1
  22   13   14 1
  23   13   15 ar
  24   14   28 1
  25   15   16 1
  26   15   17 ar
  27   16   29 1
  28   17   30 1
  29   18   19 2
  30   18   20 1
  31   20   21 1
  32   20   22 2
  33   21   31 1
