@<TRIPOS>MOLECULE
ZINC000005930916
32    34    1     0     0
SMALL
USER_CHARGES
@<TRIPOS>ATOM
1      C1      4.0164   -1.8566    0.5818 C.3      1 ZINC000005930916   -0.0800
2      C2      2.6025   -2.2975    0.8602 C.2      1 ZINC000005930916    0.0600
3      N3      1.9782   -3.2030    0.1974 N.2      1 ZINC000005930916   -0.4400
4      C4      0.7284   -3.4915    0.5554 C.2      1 ZINC000005930916    0.0700
5      C5      0.3000   -2.7322    1.6265 C.2      1 ZINC000005930916   -0.2900
6      S6      1.6183   -1.6651    2.1038 S.3      1 ZINC000005930916    0.2600
7      C7     -1.0609   -2.9064    2.1709 C.2      1 ZINC000005930916    0.4600
8      O8     -1.4261   -2.2306    3.1150 O.2      1 ZINC000005930916   -0.4200
9      C9     -1.9731   -3.8863    1.5819 C.2      1 ZINC000005930916   -0.1800
10     C10    -1.5743   -4.6408    0.5320 C.2      1 ZINC000005930916    0.1500
11     N11    -2.4396   -5.5611   -0.0166 N.pl3    1 ZINC000005930916   -0.6700
12     C12    -2.0560   -6.8974   -0.1309 C.ar     1 ZINC000005930916    0.1800
13     C13    -0.8757   -7.3363    0.4577 C.ar     1 ZINC000005930916   -0.1600
14     C14    -0.4995   -8.6598    0.3428 C.ar     1 ZINC000005930916   -0.0800
15     C15    -1.2952   -9.5484   -0.3574 C.ar     1 ZINC000005930916   -0.1200
16     C16    -0.8808  -10.9921   -0.4809 C.3      1 ZINC000005930916   -0.1100
17     C17    -2.4705   -9.1155   -0.9441 C.ar     1 ZINC000005930916   -0.0800
18     C18    -2.8560   -7.7947   -0.8290 C.ar     1 ZINC000005930916   -0.1600
19     C19    -0.2128   -4.4838   -0.0316 C.2      1 ZINC000005930916    0.4300
20     O20     0.1354   -5.1656   -0.9739 O.2      1 ZINC000005930916   -0.3700
21     H21     4.3018   -1.0810    1.2924 H        1 ZINC000005930916    0.0900
22     H22     4.6892   -2.7081    0.6838 H        1 ZINC000005930916    0.1000
23     H23     4.0810   -1.4620   -0.4322 H        1 ZINC000005930916    0.1000
24     H24    -2.9672   -4.0081    1.9861 H        1 ZINC000005930916    0.1700
25     H25    -3.3159   -5.2801   -0.3234 H        1 ZINC000005930916    0.4200
26     H26    -0.2535   -6.6429    1.0040 H        1 ZINC000005930916    0.1100
27     H27     0.4174   -9.0015    0.7999 H        1 ZINC000005930916    0.1200
28     H28    -1.2934  -11.5611    0.3522 H        1 ZINC000005930916    0.0700
29     H29    -1.2561  -11.3987   -1.4200 H        1 ZINC000005930916    0.0700
30     H30     0.2070  -11.0605   -0.4643 H        1 ZINC000005930916    0.0600
31     H31    -3.0893   -9.8123   -1.4901 H        1 ZINC000005930916    0.1300
32     H32    -3.7740   -7.4575   -1.2871 H        1 ZINC000005930916    0.1300
@<TRIPOS>BOND
1     1     2     1
2     1     21    1
3     1     22    1
4     1     23    1
5     2     6     1
6     2     3     2
7     3     4     1
8     4     19    1
9     4     5     2
10    5     6     1
11    5     7     1
12    7     8     2
13    7     9     1
14    9     10    2
15    9     24    1
16    10    11    1
17    10    19    1
18    11    12    1
19    11    25    1
20    12    18    ar
21    12    13    ar
22    13    14    ar
23    13    26    1
24    14    15    ar
25    14    27    1
26    15    16    1
27    15    17    ar
28    16    28    1
29    16    29    1
30    16    30    1
31    17    18    ar
32    17    31    1
33    18    32    1
34    19    20    2
@<TRIPOS>SUBSTRUCTURE
1   ZINC000005930916 1     RESIDUE    1   A     ZIN   1
