@<TRIPOS>MOLECULE
ZINC000003816310
51    55    1     0     0
SMALL
USER_CHARGES
@<TRIPOS>ATOM
1      C1      1.4405    1.5275    0.9062 C.3      1 ZINC000003816310   -0.0500
2      N2      1.4329    0.0585    0.9040 N.4      1 ZINC000003816310   -0.3900
3      H3      0.5492   -0.2735    1.2604 H        1 ZINC000003816310    0.4200
4      C4      2.5216   -0.4377    1.7560 C.3      1 ZINC000003816310    0.0000
5      C5      2.5024   -1.9678    1.7691 C.3      1 ZINC000003816310    0.0200
6      N6      2.6638   -2.4687    0.3968 N.3      1 ZINC000003816310   -0.4800
7      C7      2.7053   -3.8671    0.3750 C.ar     1 ZINC000003816310    0.0800
8      C8      2.5916   -4.5821    1.5651 C.ar     1 ZINC000003816310   -0.1600
9      C9      2.6309   -5.9606    1.5572 C.ar     1 ZINC000003816310   -0.0700
10     C10     2.7844   -6.6421    0.3592 C.ar     1 ZINC000003816310    0.0300
11     N11     2.8599   -7.9846    0.0235 N.pl3    1 ZINC000003816310   -0.5800
12     C12     3.0147   -8.0532   -1.3361 C.2      1 ZINC000003816310    0.4100
13     C13     3.1367   -9.2975   -2.1132 C.2      1 ZINC000003816310   -0.3000
14     C14     3.4212   -9.2473   -3.4802 C.2      1 ZINC000003816310    0.3800
15     N15     3.5921   -8.0448   -4.1223 N.pl3    1 ZINC000003816310   -0.8000
16     C16     3.5327  -10.5151   -4.2106 C.ar     1 ZINC000003816310   -0.1900
17     C17     3.8162  -10.5350   -5.5812 C.ar     1 ZINC000003816310    0.1700
18     F18     3.9925   -9.3778   -6.2559 F        1 ZINC000003816310   -0.1200
19     C19     3.9149  -11.7444   -6.2387 C.ar     1 ZINC000003816310   -0.1800
20     C20     3.7344  -12.9332   -5.5487 C.ar     1 ZINC000003816310   -0.0200
21     C21     3.4542  -12.9287   -4.1983 C.ar     1 ZINC000003816310   -0.1700
22     C22     3.3507  -11.7234   -3.5136 C.ar     1 ZINC000003816310    0.2400
23     N23     3.0715  -11.7043   -2.1613 N.am     1 ZINC000003816310   -0.6300
24     C24     2.9724  -10.5515   -1.4791 C.2      1 ZINC000003816310    0.5800
25     O25     2.7242  -10.5862   -0.2863 O.2      1 ZINC000003816310   -0.5600
26     N26     3.0374   -6.8408   -1.8415 N.2      1 ZINC000003816310   -0.5300
27     C27     2.8999   -5.9291   -0.8469 C.ar     1 ZINC000003816310    0.0900
28     C28     2.8532   -4.5320   -0.8283 C.ar     1 ZINC000003816310   -0.0800
29     C29     1.5946   -1.9598   -0.4738 C.3      1 ZINC000003816310    0.0200
30     C30     1.6217   -0.4298   -0.4683 C.3      1 ZINC000003816310    0.0000
31     H31     2.3951    1.8864    0.5213 H        1 ZINC000003816310    0.1200
32     H32     0.6323    1.8960    0.2744 H        1 ZINC000003816310    0.1200
33     H33     1.2999    1.8901    1.9245 H        1 ZINC000003816310    0.1200
34     H34     3.4772   -0.0897    1.3639 H        1 ZINC000003816310    0.1400
35     H35     2.3877   -0.0640    2.7712 H        1 ZINC000003816310    0.1400
36     H36     3.3194   -2.3365    2.3893 H        1 ZINC000003816310    0.1300
37     H37     1.5522   -2.3161    2.1739 H        1 ZINC000003816310    0.0700
38     H38     2.4723   -4.0538    2.4995 H        1 ZINC000003816310    0.1300
39     H39     2.5425   -6.5091    2.4833 H        1 ZINC000003816310    0.1300
40     H40     2.8126   -8.7350    0.6363 H        1 ZINC000003816310    0.4400
41     H41     3.8199   -7.2512   -3.6132 H        1 ZINC000003816310    0.4300
42     H42     3.4849   -7.9894   -5.0848 H        1 ZINC000003816310    0.4100
43     H43     4.1335  -11.7647   -7.2962 H        1 ZINC000003816310    0.1500
44     H44     3.8138  -13.8732   -6.0745 H        1 ZINC000003816310    0.1500
45     H45     3.3155  -13.8618   -3.6726 H        1 ZINC000003816310    0.1500
46     H46     2.9474  -12.5440   -1.6918 H        1 ZINC000003816310    0.4200
47     H47     2.9349   -3.9743   -1.7495 H        1 ZINC000003816310    0.1300
48     H48     1.7493   -2.3226   -1.4899 H        1 ZINC000003816310    0.1300
49     H49     0.6294   -2.3080   -0.1059 H        1 ZINC000003816310    0.0700
50     H50     0.8204   -0.0499   -1.1022 H        1 ZINC000003816310    0.1400
51     H51     2.5820   -0.0820   -0.8491 H        1 ZINC000003816310    0.1400
@<TRIPOS>BOND
1     1     2     1
2     1     31    1
3     1     32    1
4     1     33    1
5     2     3     1
6     2     30    1
7     2     4     1
8     4     5     1
9     4     34    1
10    4     35    1
11    5     6     1
12    5     36    1
13    5     37    1
14    6     7     1
15    6     29    1
16    7     28    ar
17    7     8     ar
18    8     9     ar
19    8     38    1
20    9     10    ar
21    9     39    1
22    10    27    ar
23    10    11    1
24    11    12    1
25    11    40    1
26    12    13    1
27    12    26    2
28    13    24    1
29    13    14    2
30    14    15    1
31    14    16    1
32    15    41    1
33    15    42    1
34    16    22    ar
35    16    17    ar
36    17    18    1
37    17    19    ar
38    19    20    ar
39    19    43    1
40    20    21    ar
41    20    44    1
42    21    22    ar
43    21    45    1
44    22    23    1
45    23    24    am
46    23    46    1
47    24    25    2
48    26    27    1
49    27    28    ar
50    28    47    1
51    29    30    1
52    29    48    1
53    29    49    1
54    30    50    1
55    30    51    1
@<TRIPOS>SUBSTRUCTURE
1   ZINC000003816310 1     RESIDUE    1   A     ZIN   1
