@<TRIPOS>MOLECULE
ZINC000028877233
82    86    1     0     0
SMALL
USER_CHARGES
@<TRIPOS>ATOM
1      C1    -17.7552    1.9910   -4.9003 C.3      1 ZINC000028877233    0.0200
2      O2    -18.1188    0.7396   -4.3140 O.3      1 ZINC000028877233   -0.3000
3      C3    -17.1323    0.0363   -3.7007 C.ar     1 ZINC000028877233    0.1300
4      C4    -15.8416    0.5452   -3.6600 C.ar     1 ZINC000028877233   -0.1800
5      C5    -14.8369   -0.1645   -3.0384 C.ar     1 ZINC000028877233   -0.0700
6      C6    -15.1164   -1.3989   -2.4474 C.ar     1 ZINC000028877233   -0.1400
7      C7    -14.0420   -2.1599   -1.7810 C.2      1 ZINC000028877233    0.5700
8      O8    -14.2867   -3.2342   -1.2670 O.2      1 ZINC000028877233   -0.5200
9      N9    -12.7894   -1.6640   -1.7421 N.am     1 ZINC000028877233   -0.6600
10     C10   -11.7968   -2.3351   -1.0335 C.ar     1 ZINC000028877233    0.2200
11     C11   -11.7870   -3.7227   -0.9909 C.ar     1 ZINC000028877233   -0.1300
12     C12   -10.8019   -4.3863   -0.2871 C.ar     1 ZINC000028877233   -0.0600
13     C13    -9.8178   -3.6759    0.3807 C.ar     1 ZINC000028877233   -0.1400
14     C14    -9.8115   -2.2979    0.3497 C.ar     1 ZINC000028877233   -0.0600
15     C15   -10.7977   -1.6126   -0.3632 C.ar     1 ZINC000028877233   -0.1800
16     C16   -10.7968   -0.1383   -0.4006 C.2      1 ZINC000028877233    0.5800
17     O17   -11.7102    0.4568   -0.9393 O.2      1 ZINC000028877233   -0.5200
18     N18    -9.7836    0.5495    0.1623 N.am     1 ZINC000028877233   -0.6700
19     C19    -9.7336    1.9422    0.0451 C.ar     1 ZINC000028877233    0.1700
20     C20    -8.5097    2.5866   -0.0803 C.ar     1 ZINC000028877233   -0.1400
21     C21    -8.4638    3.9620   -0.1964 C.ar     1 ZINC000028877233   -0.0900
22     C22    -9.6348    4.6975   -0.1879 C.ar     1 ZINC000028877233   -0.1200
23     C23    -9.5810    6.1981   -0.3153 C.3      1 ZINC000028877233   -0.1000
24     C24    -9.6477    6.5872   -1.7935 C.3      1 ZINC000028877233   -0.0100
25     N25    -9.5953    8.0500   -1.9177 N.4      1 ZINC000028877233   -0.3800
26     H26   -10.3281    8.4627   -1.3603 H        1 ZINC000028877233    0.4300
27     C27    -9.7748    8.4311   -3.3270 C.3      1 ZINC000028877233    0.0000
28     C28   -10.0251    9.9380   -3.3964 C.3      1 ZINC000028877233   -0.1000
29     C29    -8.9588   10.6687   -2.6203 C.ar     1 ZINC000028877233   -0.0900
30     C30    -8.7962   12.0283   -2.8361 C.ar     1 ZINC000028877233   -0.1700
31     C31    -7.8305   12.7358   -2.1416 C.ar     1 ZINC000028877233    0.1300
32     O32    -7.6738   14.0695   -2.3564 O.3      1 ZINC000028877233   -0.3000
33     C33    -8.5414   14.6786   -3.3146 C.3      1 ZINC000028877233    0.0200
34     C34    -7.0210   12.0757   -1.2221 C.ar     1 ZINC000028877233    0.1200
35     O35    -6.0706   12.7622   -0.5330 O.3      1 ZINC000028877233   -0.3000
36     C36    -5.2771   12.0185    0.3940 C.3      1 ZINC000028877233    0.0200
37     C37    -7.1870   10.7183   -1.0114 C.ar     1 ZINC000028877233   -0.1600
38     C38    -8.1548   10.0129   -1.7114 C.ar     1 ZINC000028877233   -0.1300
39     C39    -8.2930    8.5353   -1.4526 C.3      1 ZINC000028877233    0.0500
40     C40   -10.8551    4.0590   -0.0633 C.ar     1 ZINC000028877233   -0.0900
41     C41   -10.9082    2.6834    0.0479 C.ar     1 ZINC000028877233   -0.1200
42     C42   -16.4163   -1.9116   -2.4882 C.ar     1 ZINC000028877233   -0.1100
43     C43   -17.4194   -1.1929   -3.1081 C.ar     1 ZINC000028877233    0.0900
44     O44   -18.6851   -1.6887   -3.1496 O.3      1 ZINC000028877233   -0.3000
45     C45   -18.9051   -2.9584   -2.5319 C.3      1 ZINC000028877233    0.0200
46     H46   -18.6339    2.4480   -5.3554 H        1 ZINC000028877233    0.1100
47     H47   -17.3600    2.6523   -4.1292 H        1 ZINC000028877233    0.0600
48     H48   -16.9944    1.8273   -5.6634 H        1 ZINC000028877233    0.0600
49     H49   -15.6241    1.4993   -4.1169 H        1 ZINC000028877233    0.1400
50     H50   -13.8334    0.2336   -3.0085 H        1 ZINC000028877233    0.1300
51     H51   -12.5795   -0.8395   -2.2079 H        1 ZINC000028877233    0.4200
52     H52   -12.5510   -4.2837   -1.5087 H        1 ZINC000028877233    0.1500
53     H53   -10.7988   -5.4658   -0.2566 H        1 ZINC000028877233    0.1400
54     H54    -9.0519   -4.2045    0.9288 H        1 ZINC000028877233    0.1400
55     H55    -9.0424   -1.7489    0.8726 H        1 ZINC000028877233    0.1300
56     H56    -9.0891    0.0785    0.6488 H        1 ZINC000028877233    0.4200
57     H57    -7.5948    2.0127   -0.0865 H        1 ZINC000028877233    0.1300
58     H58    -7.5124    4.4637   -0.2935 H        1 ZINC000028877233    0.1300
59     H59   -10.4256    6.6383    0.2147 H        1 ZINC000028877233    0.1000
60     H60    -8.6499    6.5662    0.1156 H        1 ZINC000028877233    0.0900
61     H61    -8.8031    6.1470   -2.3236 H        1 ZINC000028877233    0.1300
62     H62   -10.5788    6.2191   -2.2245 H        1 ZINC000028877233    0.1400
63     H63    -8.8754    8.1831   -3.8906 H        1 ZINC000028877233    0.1300
64     H64   -10.6296    7.8986   -3.7440 H        1 ZINC000028877233    0.1400
65     H65   -10.0018   10.2617   -4.4370 H        1 ZINC000028877233    0.1200
66     H66   -11.0024   10.1631   -2.9696 H        1 ZINC000028877233    0.1000
67     H67    -9.4261   12.5381   -3.5501 H        1 ZINC000028877233    0.1500
68     H68    -8.3112   15.7414   -3.3893 H        1 ZINC000028877233    0.1100
69     H69    -8.3977   14.2066   -4.2866 H        1 ZINC000028877233    0.0600
70     H70    -9.5770   14.5525   -2.9990 H        1 ZINC000028877233    0.0600
71     H71    -4.5601   12.6841    0.8745 H        1 ZINC000028877233    0.1100
72     H72    -5.9236   11.5738    1.1506 H        1 ZINC000028877233    0.0600
73     H73    -4.7425   11.2302   -0.1360 H        1 ZINC000028877233    0.0600
74     H74    -6.5594   10.2050   -0.2980 H        1 ZINC000028877233    0.1500
75     H75    -8.1989    8.3475   -0.3830 H        1 ZINC000028877233    0.1400
76     H76    -7.5026    8.0025   -1.9812 H        1 ZINC000028877233    0.1400
77     H77   -11.7678    4.6364   -0.0568 H        1 ZINC000028877233    0.1300
78     H78   -11.8615    2.1854    0.1452 H        1 ZINC000028877233    0.1500
79     H79   -16.6363   -2.8658   -2.0327 H        1 ZINC000028877233    0.1500
80     H80   -18.2801   -3.7102   -3.0140 H        1 ZINC000028877233    0.0600
81     H81   -18.6491   -2.8972   -1.4742 H        1 ZINC000028877233    0.0600
82     H82   -19.9538   -3.2365   -2.6364 H        1 ZINC000028877233    0.1100
@<TRIPOS>BOND
1     1     2     1
2     1     46    1
3     1     47    1
4     1     48    1
5     2     3     1
6     3     43    ar
7     3     4     ar
8     4     5     ar
9     4     49    1
10    5     6     ar
11    5     50    1
12    6     7     1
13    6     42    ar
14    7     8     2
15    7     9     am
16    9     10    1
17    9     51    1
18    10    15    ar
19    10    11    ar
20    11    12    ar
21    11    52    1
22    12    13    ar
23    12    53    1
24    13    14    ar
25    13    54    1
26    14    15    ar
27    14    55    1
28    15    16    1
29    16    17    2
30    16    18    am
31    18    19    1
32    18    56    1
33    19    41    ar
34    19    20    ar
35    20    21    ar
36    20    57    1
37    21    22    ar
38    21    58    1
39    22    23    1
40    22    40    ar
41    23    24    1
42    23    59    1
43    23    60    1
44    24    25    1
45    24    61    1
46    24    62    1
47    25    26    1
48    25    39    1
49    25    27    1
50    27    28    1
51    27    63    1
52    27    64    1
53    28    29    1
54    28    65    1
55    28    66    1
56    29    38    ar
57    29    30    ar
58    30    31    ar
59    30    67    1
60    31    32    1
61    31    34    ar
62    32    33    1
63    33    68    1
64    33    69    1
65    33    70    1
66    34    35    1
67    34    37    ar
68    35    36    1
69    36    71    1
70    36    72    1
71    36    73    1
72    37    38    ar
73    37    74    1
74    38    39    1
75    39    75    1
76    39    76    1
77    40    41    ar
78    40    77    1
79    41    78    1
80    42    43    ar
81    42    79    1
82    43    44    1
83    44    45    1
84    45    80    1
85    45    81    1
86    45    82    1
@<TRIPOS>SUBSTRUCTURE
1   ZINC000028877233 1     RESIDUE    1   A     ZIN   1
