@<TRIPOS>MOLECULE
ZINC000003938688
  39   41    0    0    0
SMALL
USER_CHARGES
NO_NAME
@<TRIPOS>ATOM
    1 N1        0.3043     1.2041    -0.2951 N.pl3  1 <0>      -0.7900
    2 C2        0.1983    -0.1698    -0.2306 C.2    1 <0>       0.5900
    3 N3       -0.9185    -0.8574    -0.1342 N.2    1 <0>      -0.5900
    4 C4       -0.6415    -2.1668    -0.0956 C.2    1 <0>       0.5200
    5 N5       -1.5838    -3.1884     0.0039 N.pl3  1 <0>      -0.6200
    6 C6       -2.9405    -2.8778     0.1286 C.ar   1 <0>       0.2300
    7 C7       -3.7863    -3.7237     0.8349 C.ar   1 <0>      -0.1700
    8 C8       -5.1266    -3.4138     0.9561 C.ar   1 <0>       0.0100
    9 C9       -5.6271    -2.2630     0.3750 C.ar   1 <0>      -0.7000
   10 S10      -7.3379    -1.8714     0.5322 S.o2   1 <0>       2.7000
   11 N11      -7.5079    -0.9590     1.9036 N.am   1 <0>      -1.2500
   12 O12      -7.6562    -1.0188    -0.5591 O.2    1 <0>      -0.9600
   13 O13      -8.0093    -3.0988     0.7810 O.2    1 <0>      -0.9600
   14 C14      -4.7880    -1.4187    -0.3288 C.ar   1 <0>       0.0100
   15 C15      -3.4454    -1.7194    -0.4486 C.ar   1 <0>      -0.1500
   16 N16       0.6567    -2.3355    -0.1668 N.2    1 <0>      -0.3500
   17 N17       1.2325    -1.0581    -0.2615 N.am   1 <0>      -0.4000
   18 C18       2.5453    -0.7678    -0.3550 C.2    1 <0>       0.6200
   19 O19       2.9140     0.3903    -0.3419 O.2    1 <0>      -0.4700
   20 C20       3.5338    -1.8545    -0.4730 C.ar   1 <0>      -0.2000
   21 C21       3.8399    -2.3946    -1.7277 C.ar   1 <0>       0.1700
   22 F22       3.2303    -1.9208    -2.8363 F      1 <0>      -0.1200
   23 C23       4.7681    -3.4135    -1.8288 C.ar   1 <0>      -0.1600
   24 C24       5.3935    -3.9000    -0.6951 C.ar   1 <0>      -0.0300
   25 C25       5.0972    -3.3725     0.5487 C.ar   1 <0>      -0.1600
   26 C26       4.1762    -2.3489     0.6682 C.ar   1 <0>       0.1700
   27 F27       3.8886    -1.8348     1.8840 F      1 <0>      -0.1200
   28 H28       1.1773     1.6202    -0.3698 H      1 <0>       0.4300
   29 H29      -0.4945     1.7538    -0.2696 H      1 <0>       0.4300
   30 H30      -1.2980    -4.1152    -0.0133 H      1 <0>       0.4300
   31 H31      -3.3962    -4.6230     1.2883 H      1 <0>       0.1400
   32 H32      -5.7847    -4.0710     1.5050 H      1 <0>       0.1500
   33 H33      -6.7306    -0.7438     2.4424 H      1 <0>       0.4200
   34 H34      -8.3848    -0.6397     2.1681 H      1 <0>       0.4200
   35 H35      -5.1821    -0.5210    -0.7816 H      1 <0>       0.1500
   36 H36      -2.7906    -1.0596    -0.9983 H      1 <0>       0.1600
   37 H37       5.0056    -3.8313    -2.7960 H      1 <0>       0.1500
   38 H38       6.1173    -4.6969    -0.7815 H      1 <0>       0.1500
   39 H39       5.5901    -3.7587     1.4287 H      1 <0>       0.1500
@<TRIPOS>BOND
   1    1    2 1
   2    1   28 1
   3    1   29 1
   4    2   17 1
   5    2    3 2
   6    3    4 1
   7    4    5 1
   8    4   16 2
   9    5    6 1
  10    5   30 1
  11    6   15 ar
  12    6    7 ar
  13    7    8 ar
  14    7   31 1
  15    8    9 ar
  16    8   32 1
  17    9   10 1
  18    9   14 ar
  19   10   11 am
  20   10   12 2
  21   10   13 2
  22   11   33 1
  23   11   34 1
  24   14   15 ar
  25   14   35 1
  26   15   36 1
  27   16   17 1
  28   17   18 am
  29   18   19 2
  30   18   20 1
  31   20   26 ar
  32   20   21 ar
  33   21   22 1
  34   21   23 ar
  35   23   24 ar
  36   23   37 1
  37   24   25 ar
  38   24   38 1
  39   25   26 ar
  40   25   39 1
  41   26   27 1
