@<TRIPOS>MOLECULE
ZINC000013489155
  40   42    0    0    0
SMALL
USER_CHARGES
NO_NAME
@<TRIPOS>ATOM
    1 N1       -0.0116     1.0048     0.0076 N.4    1 <0>      -0.6400
    2 H2        0.0021    -0.0041     0.0020 H      1 <0>       0.4400
    3 H3        0.9350     1.3541     0.0004 H      1 <0>       0.4400
    4 H4       -0.4996     1.3391    -0.8099 H      1 <0>       0.4400
    5 C5       -0.6992     1.4786     1.2162 C.3    1 <0>      -0.0100
    6 C6       -2.1346     0.9490     1.2270 C.3    1 <0>      -0.1700
    7 C7       -2.8507     1.4424     2.4858 C.3    1 <0>       0.1300
    8 N8       -4.2251     0.9353     2.4962 N.pl3  1 <0>      -0.7200
    9 C9       -5.0713     1.2523     3.5435 C.ar   1 <0>       0.4500
   10 C10      -6.3949     0.7586     3.5565 C.ar   1 <0>      -0.1900
   11 C11      -6.8934    -0.0559     2.5296 C.ar   1 <0>      -0.0400
   12 C12      -8.1879    -0.4903     2.6226 C.ar   1 <0>      -0.1900
   13 C13      -8.9692    -0.1218     3.7137 C.ar   1 <0>       0.1600
   14 N14      -8.4989     0.6413     4.6732 N.ar   1 <0>      -0.4800
   15 C15      -7.2449     1.0961     4.6407 C.ar   1 <0>       0.1900
   16 C16      -6.7254     1.9137     5.6602 C.ar   1 <0>      -0.1800
   17 C17      -5.4174     2.3492     5.5633 C.ar   1 <0>       0.2000
   18 C18      -4.8614     3.2113     6.6341 C.ar   1 <0>      -0.0300
   19 C19      -5.6516     3.5694     7.7248 C.ar   1 <0>      -0.0900
   20 C20      -5.1290     4.3721     8.7186 C.ar   1 <0>      -0.1000
   21 C21      -3.8235     4.8213     8.6340 C.ar   1 <0>      -0.1000
   22 C22      -3.0339     4.4699     7.5540 C.ar   1 <0>      -0.1000
   23 C23      -3.5437     3.6623     6.5566 C.ar   1 <0>      -0.0500
   24 Br24     -2.4633     3.1827     5.0806 Br     1 <0>      -0.0300
   25 N25      -4.6411     2.0107     4.5323 N.ar   1 <0>      -0.5200
   26 H26      -0.1720     1.1175     2.0992 H      1 <0>       0.1400
   27 H27      -0.7140     2.5685     1.2222 H      1 <0>       0.1400
   28 H28      -2.6618     1.3101     0.3440 H      1 <0>       0.1000
   29 H29      -2.1198    -0.1409     1.2210 H      1 <0>       0.1000
   30 H30      -2.3235     1.0813     3.3689 H      1 <0>       0.0800
   31 H31      -2.8655     2.5323     2.4918 H      1 <0>       0.0800
   32 H32      -4.5417     0.3773     1.7687 H      1 <0>       0.4100
   33 H33      -6.2738    -0.3320     1.6892 H      1 <0>       0.1300
   34 H34      -8.6033    -1.1190     1.8489 H      1 <0>       0.1400
   35 H35      -9.9890    -0.4723     3.7726 H      1 <0>       0.1700
   36 H36      -7.3377     2.1965     6.5036 H      1 <0>       0.1500
   37 H37      -6.6712     3.2198     7.7921 H      1 <0>       0.1400
   38 H38      -5.7408     4.6503     9.5639 H      1 <0>       0.1400
   39 H39      -3.4191     5.4491     9.4142 H      1 <0>       0.1400
   40 H40      -2.0153     4.8239     7.4931 H      1 <0>       0.1400
@<TRIPOS>BOND
   1    1    2 1
   2    1    3 1
   3    1    4 1
   4    1    5 1
   5    5    6 1
   6    5   26 1
   7    5   27 1
   8    6    7 1
   9    6   28 1
  10    6   29 1
  11    7    8 1
  12    7   30 1
  13    7   31 1
  14    8    9 1
  15    8   32 1
  16    9   25 ar
  17    9   10 ar
  18   10   15 ar
  19   10   11 ar
  20   11   12 ar
  21   11   33 1
  22   12   13 ar
  23   12   34 1
  24   13   14 ar
  25   13   35 1
  26   14   15 ar
  27   15   16 ar
  28   16   17 ar
  29   16   36 1
  30   17   18 1
  31   17   25 ar
  32   18   23 ar
  33   18   19 ar
  34   19   20 ar
  35   19   37 1
  36   20   21 ar
  37   20   38 1
  38   21   22 ar
  39   21   39 1
  40   22   23 ar
  41   22   40 1
  42   23   24 1
