@<TRIPOS>MOLECULE
ZINC000205502630
70    74    1     0     0
SMALL
USER_CHARGES
@<TRIPOS>ATOM
1      C1     -0.0187    1.5258    0.0104 C.3      1 ZINC000205502630   -0.1600
2      C2      0.0021   -0.0041    0.0020 C.3      1 ZINC000205502630    0.1000
3      N3     -1.3723   -0.5112    0.0124 N.am     1 ZINC000205502630   -0.5000
4      C4     -1.9884   -0.7429    1.1875 C.2      1 ZINC000205502630    0.5500
5      O5     -1.4000   -0.5298    2.2326 O.2      1 ZINC000205502630   -0.5000
6      C6     -3.3625   -1.2494    1.2151 C.2      1 ZINC000205502630   -0.1600
7      C7     -4.0393   -1.5035    2.5071 C.ar     1 ZINC000205502630   -0.0100
8      C8     -3.6944   -2.6214    3.2677 C.ar     1 ZINC000205502630   -0.0800
9      C9     -4.3241   -2.8576    4.4696 C.ar     1 ZINC000205502630   -0.0900
10     C10    -5.3068   -1.9797    4.9273 C.ar     1 ZINC000205502630   -0.0300
11     C11    -5.9841   -2.2352    6.2207 C.ar     1 ZINC000205502630    0.1200
12     C12    -5.5658   -3.2890    7.0338 C.ar     1 ZINC000205502630    0.0600
13     N13    -6.1725   -3.5121    8.1845 N.ar     1 ZINC000205502630   -0.4300
14     C14    -7.1745   -2.7389    8.5666 C.ar     1 ZINC000205502630    0.0500
15     C15    -7.5932   -1.6924    7.7628 C.ar     1 ZINC000205502630    0.0900
16     C16    -8.7362   -0.8153    8.2049 C.3      1 ZINC000205502630   -0.1000
17     N17    -6.9891   -1.4573    6.6128 N.ar     1 ZINC000205502630   -0.4300
18     C18    -5.6521   -0.8610    4.1684 C.ar     1 ZINC000205502630   -0.0700
19     C19    -5.0194   -0.6210    2.9680 C.ar     1 ZINC000205502630   -0.0200
20     Cl20   -5.4486    0.7707    2.0233 Cl       1 ZINC000205502630   -0.0600
21     C21    -4.0159   -1.4854    0.0344 C.2      1 ZINC000205502630    0.0200
22     C22    -3.3436   -1.2328   -1.1828 C.ar     1 ZINC000205502630   -0.2800
23     C23    -3.9685   -1.4581   -2.4187 C.ar     1 ZINC000205502630    0.2700
24     N24    -3.2927   -1.2047   -3.5237 N.ar     1 ZINC000205502630   -0.5800
25     C25    -2.0468   -0.7458   -3.4780 C.ar     1 ZINC000205502630    0.6100
26     N26    -1.3859   -0.4971   -4.6642 N.pl3    1 ZINC000205502630   -0.6900
27     C27    -2.0591   -0.7396   -5.9426 C.3      1 ZINC000205502630    0.1300
28     C28    -1.1134   -0.3861   -7.0922 C.3      1 ZINC000205502630   -0.1300
29     C29    -1.8165   -0.6393   -8.4272 C.3      1 ZINC000205502630   -0.0900
30     C30    -2.9971    0.3248   -8.5752 C.3      1 ZINC000205502630   -0.1500
31     C31    -3.6467    0.1206   -9.9455 C.3      1 ZINC000205502630   -0.0100
32     N32    -2.6623    0.3843  -11.0019 N.4      1 ZINC000205502630   -0.3900
33     H33    -2.2973    1.3188  -10.8944 H        1 ZINC000205502630    0.4200
34     C34    -3.3101    0.2612  -12.3146 C.3      1 ZINC000205502630   -0.0500
35     C35    -1.5619   -0.5828  -10.9100 C.3      1 ZINC000205502630   -0.0100
36     C36    -0.8321   -0.4056   -9.5768 C.3      1 ZINC000205502630   -0.1400
37     N37    -1.4157   -0.5178   -2.3365 N.ar     1 ZINC000205502630   -0.6000
38     C38    -2.0207   -0.7397   -1.1749 C.ar     1 ZINC000205502630    0.4700
39     H39     1.0039    1.9031    0.0027 H        1 ZINC000205502630    0.0800
40     H40    -0.5459    1.8868   -0.8726 H        1 ZINC000205502630    0.0600
41     H41    -0.5289    1.8773    0.9072 H        1 ZINC000205502630    0.0600
42     H42     0.5123   -0.3556   -0.8948 H        1 ZINC000205502630    0.1000
43     H43     0.5293   -0.3651    0.8851 H        1 ZINC000205502630    0.1000
44     H44    -2.9339   -3.3017    2.9138 H        1 ZINC000205502630    0.1400
45     H45    -4.0571   -3.7231    5.0578 H        1 ZINC000205502630    0.1400
46     H46    -4.7475   -3.9212    6.7220 H        1 ZINC000205502630    0.1700
47     H47    -7.6685   -2.9246    9.5089 H        1 ZINC000205502630    0.1700
48     H48    -8.3480    0.0235    8.7827 H        1 ZINC000205502630    0.0900
49     H49    -9.2655   -0.4395    7.3294 H        1 ZINC000205502630    0.0800
50     H50    -9.4216   -1.3956    8.8226 H        1 ZINC000205502630    0.0800
51     H51    -6.4127   -0.1815    4.5233 H        1 ZINC000205502630    0.1500
52     H52    -5.0291   -1.8592    0.0337 H        1 ZINC000205502630    0.1500
53     H53    -4.9809   -1.8313   -2.4647 H        1 ZINC000205502630    0.1900
54     H54    -0.4758   -0.1618   -4.6513 H        1 ZINC000205502630    0.4200
55     H55    -2.3387   -1.7908   -6.0123 H        1 ZINC000205502630    0.0700
56     H56    -2.9542   -0.1206   -6.0050 H        1 ZINC000205502630    0.0700
57     H57    -0.8337    0.6652   -7.0224 H        1 ZINC000205502630    0.0800
58     H58    -0.2183   -1.0050   -7.0297 H        1 ZINC000205502630    0.0800
59     H59    -2.1775   -1.6672   -8.4598 H        1 ZINC000205502630    0.0900
60     H60    -3.7291    0.1268   -7.7922 H        1 ZINC000205502630    0.1200
61     H61    -2.6413    1.3517   -8.4905 H        1 ZINC000205502630    0.0900
62     H62    -4.0023   -0.9064  -10.0291 H        1 ZINC000205502630    0.1300
63     H63    -4.4877    0.8053  -10.0541 H        1 ZINC000205502630    0.1300
64     H64    -4.1239    0.9827  -12.3872 H        1 ZINC000205502630    0.1200
65     H65    -2.5799    0.4569  -13.0999 H        1 ZINC000205502630    0.1200
66     H66    -3.7071   -0.7472  -12.4307 H        1 ZINC000205502630    0.1200
67     H67    -1.9620   -1.5948  -10.9730 H        1 ZINC000205502630    0.1300
68     H68    -0.8639   -0.4173  -11.7307 H        1 ZINC000205502630    0.1300
69     H69    -0.4314    0.6061   -9.5129 H        1 ZINC000205502630    0.0900
70     H70    -0.0166   -1.1257   -9.5098 H        1 ZINC000205502630    0.1100
@<TRIPOS>BOND
1     1     2     1
2     1     39    1
3     1     40    1
4     1     41    1
5     2     3     1
6     2     42    1
7     2     43    1
8     3     38    1
9     3     4     am
10    4     5     2
11    4     6     1
12    6     7     1
13    6     21    2
14    7     19    ar
15    7     8     ar
16    8     9     ar
17    8     44    1
18    9     10    ar
19    9     45    1
20    10    11    1
21    10    18    ar
22    11    17    ar
23    11    12    ar
24    12    13    ar
25    12    46    1
26    13    14    ar
27    14    15    ar
28    14    47    1
29    15    16    1
30    15    17    ar
31    16    48    1
32    16    49    1
33    16    50    1
34    18    19    ar
35    18    51    1
36    19    20    1
37    21    22    1
38    21    52    1
39    22    38    ar
40    22    23    ar
41    23    24    ar
42    23    53    1
43    24    25    ar
44    25    26    1
45    25    37    ar
46    26    27    1
47    26    54    1
48    27    28    1
49    27    55    1
50    27    56    1
51    28    29    1
52    28    57    1
53    28    58    1
54    29    36    1
55    29    30    1
56    29    59    1
57    30    31    1
58    30    60    1
59    30    61    1
60    31    32    1
61    31    62    1
62    31    63    1
63    32    33    1
64    32    34    1
65    32    35    1
66    34    64    1
67    34    65    1
68    34    66    1
69    35    36    1
70    35    67    1
71    35    68    1
72    36    69    1
73    36    70    1
74    37    38    ar
@<TRIPOS>SUBSTRUCTURE
1   ZINC000205502630 1     RESIDUE    1   A     ZIN   1
