@<TRIPOS>MOLECULE
ZINC000045320906
  53   57    0    0    0
SMALL
USER_CHARGES
NO_NAME
@<TRIPOS>ATOM
    1 O1       -0.3349     1.3487     0.0227 O.3    1 <0>      -0.5000
    2 C2       -0.3127    -0.0102     0.0156 C.ar   1 <0>       0.0900
    3 C3       -0.4089    -0.6994    -1.1853 C.ar   1 <0>      -0.1100
    4 C4       -0.3868    -2.0818    -1.1976 C.ar   1 <0>      -0.1100
    5 C5       -0.2689    -2.7844    -0.0156 C.ar   1 <0>      -0.0700
    6 C6       -0.1714    -2.0999     1.1952 C.ar   1 <0>      -0.0400
    7 C7       -0.0441    -2.8523     2.4666 C.ar   1 <0>       0.4400
    8 N8       -0.0201    -4.1809     2.4246 N.ar   1 <0>      -0.5400
    9 C9        0.0923    -4.8999     3.5340 C.ar   1 <0>       0.5300
   10 N10       0.1169    -6.2800     3.4817 N.pl3  1 <0>      -0.6700
   11 C11      -1.1263    -7.0633     3.5603 C.3    1 <0>       0.1100
   12 C12      -1.1431    -8.0617     2.3971 C.3    1 <0>       0.0400
   13 O13       0.0775    -8.8060     2.3981 O.3    1 <0>      -0.3800
   14 C14       1.2479    -8.0112     2.1925 C.3    1 <0>       0.0500
   15 C15       1.3866    -7.0100     3.3395 C.3    1 <0>       0.1100
   16 C16       0.1863    -4.2236     4.7669 C.ar   1 <0>      -0.2900
   17 C17       0.3124    -4.6300     6.1123 C.2    1 <0>       0.1300
   18 N18       0.3558    -3.5663     6.8631 N.2    1 <0>      -0.2500
   19 N19       0.2621    -2.4199     6.0640 N.pl3  1 <0>      -0.3900
   20 C20       0.2755    -1.0356     6.5433 C.3    1 <0>       0.1700
   21 C21      -0.8948    -0.8157     7.5062 C.3    1 <0>      -0.1600
   22 C22      -0.8287     0.6076     8.0641 C.3    1 <0>       0.0000
   23 N23       0.4384     0.7980     8.7801 N.4    1 <0>      -0.5100
   24 H24       0.4557     1.7190     9.1919 H      1 <0>       0.4400
   25 H25       0.5200     0.1038     9.5077 H      1 <0>       0.4300
   26 C26       1.5633     0.6595     7.8473 C.3    1 <0>       0.0000
   27 C27       1.5892    -0.7619     7.2812 C.3    1 <0>      -0.1600
   28 C28       0.1566    -2.8144     4.7627 C.ar   1 <0>       0.3600
   29 N29       0.0467    -2.1765     3.6005 N.ar   1 <0>      -0.5400
   30 C30      -0.1884    -0.7070     1.2064 C.ar   1 <0>      -0.0900
   31 H31       0.5380     1.7567    -0.0584 H      1 <0>       0.3900
   32 H32      -0.5016    -0.1542    -2.1130 H      1 <0>       0.1400
   33 H33      -0.4623    -2.6132    -2.1347 H      1 <0>       0.1400
   34 H34      -0.2527    -3.8642    -0.0285 H      1 <0>       0.1400
   35 H35      -1.1614    -7.6022     4.5071 H      1 <0>       0.0700
   36 H36      -1.9855    -6.3969     3.4845 H      1 <0>       0.0800
   37 H37      -1.9854    -8.7434     2.5147 H      1 <0>       0.1100
   38 H38      -1.2395    -7.5217     1.4552 H      1 <0>       0.0600
   39 H39       2.1257    -8.6567     2.1628 H      1 <0>       0.1100
   40 H40       1.1601    -7.4710     1.2498 H      1 <0>       0.0600
   41 H41       2.1921    -6.3094     3.1198 H      1 <0>       0.0800
   42 H42       1.6040    -7.5412     4.2661 H      1 <0>       0.0700
   43 H43       0.3637    -5.6510     6.4609 H      1 <0>       0.2000
   44 H44       0.1847    -0.3557     5.6962 H      1 <0>       0.1200
   45 H45      -1.8356    -0.9545     6.9734 H      1 <0>       0.1200
   46 H46      -0.8311    -1.5313     8.3260 H      1 <0>       0.1000
   47 H47      -0.8928     1.3223     7.2435 H      1 <0>       0.1400
   48 H48      -1.6607     0.7676     8.7499 H      1 <0>       0.1400
   49 H49       1.4482     1.3730     7.0315 H      1 <0>       0.1400
   50 H50       2.4972     0.8577     8.3732 H      1 <0>       0.1400
   51 H51       1.7045    -1.4763     8.0963 H      1 <0>       0.1000
   52 H52       2.4240    -0.8622     6.5875 H      1 <0>       0.1200
   53 H53      -0.1127    -0.1720     2.1416 H      1 <0>       0.1400
@<TRIPOS>BOND
   1    1    2 1
   2    1   31 1
   3    2   30 ar
   4    2    3 ar
   5    3    4 ar
   6    3   32 1
   7    4    5 ar
   8    4   33 1
   9    5    6 ar
  10    5   34 1
  11    6    7 1
  12    6   30 ar
  13    7   29 ar
  14    7    8 ar
  15    8    9 ar
  16    9   10 1
  17    9   16 ar
  18   10   15 1
  19   10   11 1
  20   11   12 1
  21   11   35 1
  22   11   36 1
  23   12   13 1
  24   12   37 1
  25   12   38 1
  26   13   14 1
  27   14   15 1
  28   14   39 1
  29   14   40 1
  30   15   41 1
  31   15   42 1
  32   16   28 ar
  33   16   17 1
  34   17   18 2
  35   17   43 1
  36   18   19 1
  37   19   20 1
  38   19   28 1
  39   20   27 1
  40   20   21 1
  41   20   44 1
  42   21   22 1
  43   21   45 1
  44   21   46 1
  45   22   23 1
  46   22   47 1
  47   22   48 1
  48   23   24 1
  49   23   25 1
  50   23   26 1
  51   26   27 1
  52   26   49 1
  53   26   50 1
  54   27   51 1
  55   27   52 1
  56   28   29 ar
  57   30   53 1
