@<TRIPOS>MOLECULE
ZINC000001559601
35    37    1     0     0
SMALL
USER_CHARGES
@<TRIPOS>ATOM
1      C1     -0.0187    1.5258    0.0104 C.3      1 ZINC000001559601   -0.1400
2      C2      0.0021   -0.0041    0.0020 C.3      1 ZINC000001559601    0.1300
3      H3      0.4329   -0.3526   -0.9366 H        1 ZINC000001559601    0.0800
4      O4     -1.3329   -0.4934    0.1174 O.3      1 ZINC000001559601   -0.3400
5      C5     -1.3906   -1.9117    0.3132 C.3      1 ZINC000001559601    0.1100
6      H6     -0.7770   -2.4117   -0.4362 H        1 ZINC000001559601    0.0700
7      C7     -2.8392   -2.3902    0.1971 C.3      1 ZINC000001559601   -0.1800
8      C8     -3.3317   -2.1645   -1.2091 C.2      1 ZINC000001559601    0.4900
9      O9     -2.5926   -1.6669   -2.0414 O.co2    1 ZINC000001559601   -0.6900
10     O10    -4.4692   -2.4794   -1.5146 O.co2    1 ZINC000001559601   -0.7100
11     C11    -0.8539   -2.2229    1.7109 C.3      1 ZINC000001559601   -0.1100
12     C12     0.4586   -1.5129    1.9286 C.2      1 ZINC000001559601   -0.1100
13     C13     0.8463   -0.4961    1.1495 C.2      1 ZINC000001559601   -0.1500
14     C14     2.1410    0.1810    1.4011 C.2      1 ZINC000001559601    0.4300
15     O15     2.3779    1.2578    0.8893 O.2      1 ZINC000001559601   -0.4100
16     C16     3.1384   -0.4596    2.2757 C.ar     1 ZINC000001559601   -0.1500
17     C17     4.4640   -0.0273    2.3069 C.ar     1 ZINC000001559601    0.1600
18     O18     4.8647    1.0036    1.5237 O.3      1 ZINC000001559601   -0.4800
19     C19     5.3751   -0.6644    3.1518 C.ar     1 ZINC000001559601   -0.1300
20     C20     4.9711   -1.7124    3.9497 C.ar     1 ZINC000001559601   -0.0800
21     C21     3.6533   -2.1523    3.9266 C.ar     1 ZINC000001559601   -0.0800
22     C22     2.7330   -1.5323    3.0943 C.ar     1 ZINC000001559601   -0.1100
23     C23     1.3233   -1.9708    3.0410 C.2      1 ZINC000001559601    0.4200
24     O24     0.8766   -2.7017    3.9028 O.2      1 ZINC000001559601   -0.4200
25     H25     0.9634    1.9040   -0.2734 H        1 ZINC000001559601    0.0900
26     H26    -0.7647    1.8829   -0.6995 H        1 ZINC000001559601    0.0700
27     H27    -0.2695    1.8802    1.0102 H        1 ZINC000001559601    0.0500
28     H28    -2.8909   -3.4529    0.4339 H        1 ZINC000001559601    0.0700
29     H29    -3.4634   -1.8318    0.8947 H        1 ZINC000001559601    0.0700
30     H30    -1.5742   -1.8889    2.4577 H        1 ZINC000001559601    0.1000
31     H31    -0.7045   -3.2980    1.8099 H        1 ZINC000001559601    0.0900
32     H32     4.7804    1.8713    1.9420 H        1 ZINC000001559601    0.4000
33     H33     6.4029   -0.3338    3.1797 H        1 ZINC000001559601    0.1400
34     H34     5.6855   -2.1966    4.5990 H        1 ZINC000001559601    0.1400
35     H35     3.3462   -2.9752    4.5551 H        1 ZINC000001559601    0.1500
@<TRIPOS>BOND
1     1     2     1
2     1     25    1
3     1     26    1
4     1     27    1
5     2     3     1
6     2     13    1
7     2     4     1
8     4     5     1
9     5     6     1
10    5     7     1
11    5     11    1
12    7     8     1
13    7     28    1
14    7     29    1
15    8     9     ar
16    8     10    ar
17    11    12    1
18    11    30    1
19    11    31    1
20    12    23    1
21    12    13    2
22    13    14    1
23    14    15    2
24    14    16    1
25    16    22    ar
26    16    17    ar
27    17    18    1
28    17    19    ar
29    18    32    1
30    19    20    ar
31    19    33    1
32    20    21    ar
33    20    34    1
34    21    22    ar
35    21    35    1
36    22    23    1
37    23    24    2
@<TRIPOS>SUBSTRUCTURE
1   ZINC000001559601 1     RESIDUE    1   A     ZIN   1
