@<TRIPOS>MOLECULE
ZINC000001856315
  29   30    0    0    0
SMALL
USER_CHARGES
NO_NAME
@<TRIPOS>ATOM
    1 C1       -0.2758     1.9067    -0.1389 C.3    1 <0>      -0.1300
    2 C2        0.0017     0.4334     0.0144 C.2    1 <0>      -0.0600
    3 C3       -1.0361    -0.4197     0.1966 C.2    1 <0>      -0.1600
    4 S4       -2.6826     0.2053     0.2508 S.3    1 <0>      -0.0700
    5 C5       -3.1049    -0.1702     1.9703 C.3    1 <0>      -0.1200
    6 C6       -4.4830     0.4096     2.2953 C.3    1 <0>       0.0900
    7 O7       -4.8164     0.1131     3.6529 O.3    1 <0>      -0.5700
    8 C8       -0.7955    -1.8775     0.3504 C.2    1 <0>       0.4300
    9 O9       -1.7243    -2.6423     0.5132 O.2    1 <0>      -0.4100
   10 C10       0.5938    -2.3821     0.3014 C.ar   1 <0>      -0.1200
   11 C11       0.8706    -3.7364     0.4397 C.ar   1 <0>      -0.0600
   12 C12       2.1839    -4.1776     0.3887 C.ar   1 <0>      -0.1000
   13 C13       3.2163    -3.2791     0.2017 C.ar   1 <0>      -0.1000
   14 C14       2.9543    -1.9243     0.0627 C.ar   1 <0>      -0.0600
   15 C15       1.6447    -1.4663     0.1108 C.ar   1 <0>      -0.1300
   16 C16       1.3377    -0.0265    -0.0411 C.2    1 <0>       0.4200
   17 O17       2.2431     0.7690    -0.2102 O.2    1 <0>      -0.4100
   18 H18       0.6661     2.4444    -0.2483 H      1 <0>       0.0900
   19 H19      -0.8923     2.0703    -1.0228 H      1 <0>       0.0900
   20 H20      -0.8018     2.2711     0.7435 H      1 <0>       0.1000
   21 H21      -3.1226    -1.2507     2.1125 H      1 <0>       0.1000
   22 H22      -2.3597     0.2712     2.6322 H      1 <0>       0.1000
   23 H23      -4.4653     1.4902     2.1532 H      1 <0>       0.0600
   24 H24      -5.2281    -0.0318     1.6335 H      1 <0>       0.0600
   25 H25      -5.6792     0.4514     3.9289 H      1 <0>       0.3900
   26 H26       0.0665    -4.4422     0.5864 H      1 <0>       0.1500
   27 H27       2.4011    -5.2301     0.4963 H      1 <0>       0.1400
   28 H28       4.2355    -3.6343     0.1637 H      1 <0>       0.1400
   29 H29       3.7667    -1.2277    -0.0826 H      1 <0>       0.1500
@<TRIPOS>BOND
   1    1    2 1
   2    1   18 1
   3    1   19 1
   4    1   20 1
   5    2   16 1
   6    2    3 2
   7    3    4 1
   8    3    8 1
   9    4    5 1
  10    5    6 1
  11    5   21 1
  12    5   22 1
  13    6    7 1
  14    6   23 1
  15    6   24 1
  16    7   25 1
  17    8    9 2
  18    8   10 1
  19   10   15 ar
  20   10   11 ar
  21   11   12 ar
  22   11   26 1
  23   12   13 ar
  24   12   27 1
  25   13   14 ar
  26   13   28 1
  27   14   15 ar
  28   14   29 1
  29   15   16 1
  30   16   17 2
