@<TRIPOS>MOLECULE
ZINC000003607414
  40   42    0    0    0
SMALL
USER_CHARGES
NO_NAME
@<TRIPOS>ATOM
    1 O1        0.0021    -0.0041     0.0020 O.2    1 <0>      -0.5400
    2 C2       -0.0144     1.2086     0.0087 C.2    1 <0>       0.5100
    3 C3        1.2803     1.9798     0.0005 C.3    1 <0>      -0.1200
    4 C4        2.4566     1.0015    -0.0160 C.3    1 <0>      -0.0600
    5 C5        3.7513     1.7727    -0.0242 C.2    1 <0>       0.4000
    6 N6        3.6955     3.0698    -0.0114 N.2    1 <0>      -0.5200
    7 C7        4.8191     3.8300    -0.0172 C.ar   1 <0>       0.1500
    8 C8        4.7600     5.2247    -0.0030 C.ar   1 <0>      -0.1100
    9 C9        5.9264     5.9567    -0.0092 C.ar   1 <0>      -0.0700
   10 C10       7.1626     5.3251    -0.0294 C.ar   1 <0>      -0.1400
   11 C11       7.2467     3.9497    -0.0442 C.ar   1 <0>      -0.0400
   12 C12       6.0787     3.1906    -0.0378 C.ar   1 <0>      -0.2000
   13 C13       6.1064     1.7204    -0.0534 C.2    1 <0>       0.5500
   14 O14       7.1581     1.1079    -0.0721 O.2    1 <0>      -0.5100
   15 N15       4.9169     1.0749    -0.0391 N.am   1 <0>      -0.6500
   16 N16      -1.1906     1.8666     0.0178 N.am   1 <0>      -0.7300
   17 C17      -2.4492     1.1169     0.0197 C.3    1 <0>       0.1600
   18 C18      -3.6079     2.0805     0.0305 C.ar   1 <0>      -0.1100
   19 C19      -4.1299     2.5203     1.2325 C.ar   1 <0>      -0.1000
   20 C20      -5.1927     3.4043     1.2424 C.ar   1 <0>      -0.1200
   21 C21      -5.7331     3.8487     0.0502 C.ar   1 <0>      -0.1100
   22 C22      -5.2105     3.4096    -1.1519 C.ar   1 <0>      -0.1200
   23 C23      -4.1449     2.5290    -1.1617 C.ar   1 <0>      -0.1000
   24 H24       1.3211     2.6120    -0.8866 H      1 <0>       0.1100
   25 H25       1.3381     2.6024     0.8933 H      1 <0>       0.1100
   26 H26       2.4158     0.3693     0.8710 H      1 <0>       0.1100
   27 H27       2.3988     0.3789    -0.9088 H      1 <0>       0.1100
   28 H28       3.8042     5.7271     0.0125 H      1 <0>       0.1400
   29 H29       5.8789     7.0356     0.0015 H      1 <0>       0.1400
   30 H30       8.0661     5.9168    -0.0340 H      1 <0>       0.1300
   31 H31       8.2111     3.4638    -0.0604 H      1 <0>       0.1400
   32 H32       4.8963     0.1051    -0.0484 H      1 <0>       0.4200
   33 H33      -1.2037     2.8365     0.0232 H      1 <0>       0.4000
   34 H34      -2.5027     0.4944    -0.8734 H      1 <0>       0.0800
   35 H35      -2.4943     0.4847     0.9065 H      1 <0>       0.0800
   36 H36      -3.7077     2.1731     2.1639 H      1 <0>       0.1200
   37 H37      -5.6010     3.7473     2.1815 H      1 <0>       0.1200
   38 H38      -6.5639     4.5387     0.0579 H      1 <0>       0.1200
   39 H39      -5.6329     3.7565    -2.0833 H      1 <0>       0.1200
   40 H40      -3.7366     2.1859    -2.1009 H      1 <0>       0.1200
@<TRIPOS>BOND
   1    1    2 2
   2    2    3 1
   3    2   16 am
   4    3    4 1
   5    3   24 1
   6    3   25 1
   7    4    5 1
   8    4   26 1
   9    4   27 1
  10    5   15 1
  11    5    6 2
  12    6    7 1
  13    7   12 ar
  14    7    8 ar
  15    8    9 ar
  16    8   28 1
  17    9   10 ar
  18    9   29 1
  19   10   11 ar
  20   10   30 1
  21   11   12 ar
  22   11   31 1
  23   12   13 1
  24   13   14 2
  25   13   15 am
  26   15   32 1
  27   16   17 1
  28   16   33 1
  29   17   18 1
  30   17   34 1
  31   17   35 1
  32   18   23 ar
  33   18   19 ar
  34   19   20 ar
  35   19   36 1
  36   20   21 ar
  37   20   37 1
  38   21   22 ar
  39   21   38 1
  40   22   23 ar
  41   22   39 1
  42   23   40 1
