@<TRIPOS>MOLECULE
ZINC000003963016
42    46    1     0     0
SMALL
USER_CHARGES
@<TRIPOS>ATOM
1      O1     -0.0164    1.3549    0.0095 O.3      1 ZINC000003963016   -0.5000
2      C2      0.0021   -0.0041    0.0020 C.ar     1 ZINC000003963016    0.1000
3      C3      0.0058   -0.6913   -1.2038 C.ar     1 ZINC000003963016   -0.1200
4      C4      0.0245   -2.0737   -1.2162 C.ar     1 ZINC000003963016   -0.1100
5      C5      0.0401   -2.7781   -0.0295 C.ar     1 ZINC000003963016   -0.0800
6      C6      0.0369   -2.0956    1.1860 C.ar     1 ZINC000003963016   -0.0300
7      C7      0.0541   -2.8503    2.4629 C.ar     1 ZINC000003963016    0.3800
8      N8      0.0453   -2.1812    3.6057 N.ar     1 ZINC000003963016   -0.4900
9      C9      0.0602   -2.8283    4.7667 C.ar     1 ZINC000003963016    0.1700
10     C10     0.0854   -4.2285    4.7766 C.ar     1 ZINC000003963016   -0.0400
11     O11     0.0971   -4.6523    6.0572 O.3      1 ZINC000003963016   -0.1700
12     C12     0.0812   -3.6160    6.9225 C.ar     1 ZINC000003963016    0.3100
13     C13     0.0574   -2.4235    6.1815 C.ar     1 ZINC000003963016   -0.1800
14     C14     0.0380   -1.1993    6.8453 C.ar     1 ZINC000003963016    0.0100
15     C15     0.0429   -1.2071    8.2294 C.ar     1 ZINC000003963016   -0.2000
16     C16     0.0668   -2.4194    8.8983 C.ar     1 ZINC000003963016    0.1700
17     N17     0.0845   -3.5638    8.2479 N.ar     1 ZINC000003963016   -0.4800
18     C18     0.0938   -4.8947    3.5441 C.ar     1 ZINC000003963016    0.4000
19     N19     0.1186   -6.2801    3.4917 N.3      1 ZINC000003963016   -0.4700
20     C20     1.2732   -6.8146    4.2282 C.3      1 ZINC000003963016    0.0200
21     C21     1.2288   -8.3446    4.1953 C.3      1 ZINC000003963016    0.0700
22     O22     1.2023   -8.7866    2.8355 O.3      1 ZINC000003963016   -0.3800
23     C23     0.0903   -8.2853    2.0888 C.3      1 ZINC000003963016    0.0600
24     C24     0.1232   -6.7547    2.1003 C.3      1 ZINC000003963016    0.0300
25     N25     0.0724   -4.1775    2.4275 N.ar     1 ZINC000003963016   -0.5200
26     C26     0.0229   -0.7030    1.1980 C.ar     1 ZINC000003963016   -0.0900
27     H27     0.8616    1.7602    0.0033 H        1 ZINC000003963016    0.3900
28     H28    -0.0063   -0.1446   -2.1351 H        1 ZINC000003963016    0.1300
29     H29     0.0266   -2.6037   -2.1572 H        1 ZINC000003963016    0.1400
30     H30     0.0543   -3.8580   -0.0426 H        1 ZINC000003963016    0.1400
31     H31     0.0199   -0.2699    6.2955 H        1 ZINC000003963016    0.1500
32     H32     0.0286   -0.2788    8.7812 H        1 ZINC000003963016    0.1600
33     H33     0.0706   -2.4261    9.9783 H        1 ZINC000003963016    0.1800
34     H34     2.1951   -6.4671    3.7617 H        1 ZINC000003963016    0.0600
35     H35     1.2360   -6.4715    5.2621 H        1 ZINC000003963016    0.1000
36     H36     2.1132   -8.7451    4.6910 H        1 ZINC000003963016    0.1100
37     H37     0.3332   -8.6938    4.7092 H        1 ZINC000003963016    0.0700
38     H38     0.1512   -8.6429    1.0609 H        1 ZINC000003963016    0.1100
39     H39    -0.8384   -8.6328    2.5413 H        1 ZINC000003963016    0.0600
40     H40    -0.7536   -6.3679    1.5809 H        1 ZINC000003963016    0.1000
41     H41     1.0266   -6.4063    1.5998 H        1 ZINC000003963016    0.0700
42     H42     0.0204   -0.1696    2.1370 H        1 ZINC000003963016    0.1400
@<TRIPOS>BOND
1     1     2     1
2     1     27    1
3     2     26    ar
4     2     3     ar
5     3     4     ar
6     3     28    1
7     4     5     ar
8     4     29    1
9     5     6     ar
10    5     30    1
11    6     7     1
12    6     26    ar
13    7     25    ar
14    7     8     ar
15    8     9     ar
16    9     13    1
17    9     10    ar
18    10    11    1
19    10    18    ar
20    11    12    1
21    12    17    ar
22    12    13    ar
23    13    14    ar
24    14    15    ar
25    14    31    1
26    15    16    ar
27    15    32    1
28    16    17    ar
29    16    33    1
30    18    19    1
31    18    25    ar
32    19    24    1
33    19    20    1
34    20    21    1
35    20    34    1
36    20    35    1
37    21    22    1
38    21    36    1
39    21    37    1
40    22    23    1
41    23    24    1
42    23    38    1
43    23    39    1
44    24    40    1
45    24    41    1
46    26    42    1
@<TRIPOS>SUBSTRUCTURE
1   ZINC000003963016 1     RESIDUE    1   A     ZIN   1
