@<TRIPOS>MOLECULE
ZINC000015831592
19    20    1     0     0
SMALL
USER_CHARGES
@<TRIPOS>ATOM
1      O1      0.1349    0.2433   -0.7119 O.2      1 ZINC000015831592   -0.2100
2      N2     -0.0144    1.2138    0.0087 N.pl3    1 ZINC000015831592    0.0700
3      O3      0.9009    1.5927    0.7174 O.2      1 ZINC000015831592   -0.2100
4      C4     -1.3063    1.9365    0.0188 C.ar     1 ZINC000015831592   -0.1900
5      C5     -1.3302    3.3362    0.1265 C.ar     1 ZINC000015831592    0.0000
6      C6     -0.1415    4.0839    0.2267 C.ar     1 ZINC000015831592   -0.1200
7      C7     -0.2414    5.4422    0.3281 C.ar     1 ZINC000015831592   -0.1400
8      C8     -1.4958    6.0488    0.3302 C.ar     1 ZINC000015831592    0.0600
9      N9     -2.6003    5.3491    0.2371 N.ar     1 ZINC000015831592   -0.4100
10     C10    -2.5723    4.0173    0.1347 C.ar     1 ZINC000015831592    0.0500
11     C11    -3.7640    3.2694    0.0342 C.ar     1 ZINC000015831592    0.3400
12     O12    -4.9678    3.8988    0.0402 O.3      1 ZINC000015831592   -0.6300
13     C13    -3.7009    1.9088   -0.0696 C.ar     1 ZINC000015831592   -0.3000
14     C14    -2.4765    1.2467   -0.0821 C.ar     1 ZINC000015831592    0.0400
15     H15     0.8224    3.5969    0.2238 H        1 ZINC000015831592    0.1400
16     H16     0.6510    6.0454    0.4069 H        1 ZINC000015831592    0.1300
17     H17    -1.5597    7.1239    0.4111 H        1 ZINC000015831592    0.1500
18     H18    -4.6147    1.3384   -0.1464 H        1 ZINC000015831592    0.1300
19     H19    -2.4544    0.1701   -0.1651 H        1 ZINC000015831592    0.1200
@<TRIPOS>BOND
1     1     2     2
2     2     3     2
3     2     4     1
4     4     14    ar
5     4     5     ar
6     5     10    ar
7     5     6     ar
8     6     7     ar
9     6     15    1
10    7     8     ar
11    7     16    1
12    8     9     ar
13    8     17    1
14    9     10    ar
15    10    11    ar
16    11    12    1
17    11    13    ar
18    13    14    ar
19    13    18    1
20    14    19    1
@<TRIPOS>SUBSTRUCTURE
1   ZINC000015831592 1     RESIDUE    1   A     ZIN   1
