@<TRIPOS>MOLECULE
ZINC000013489185
  54   56    0    0    0
SMALL
USER_CHARGES
NO_NAME
@<TRIPOS>ATOM
    1 C1        2.8973    -0.0959    -7.0226 C.3    1 <0>      -0.0500
    2 N2        2.8258    -0.4757    -5.6053 N.4    1 <0>      -0.5100
    3 H3        3.7559    -0.4939    -5.2147 H      1 <0>       0.4300
    4 H4        2.2639     0.1965    -5.1049 H      1 <0>       0.4300
    5 C5        2.2183    -1.8078    -5.4855 C.3    1 <0>      -0.0100
    6 C6        2.1438    -2.2034    -4.0094 C.3    1 <0>      -0.1800
    7 C7        1.5110    -3.5909    -3.8845 C.3    1 <0>       0.1500
    8 N8        1.4397    -3.9697    -2.4711 N.pl3  1 <0>      -0.6600
    9 C9        0.2552    -3.6275    -1.6799 C.3    1 <0>       0.1100
   10 C10       2.4907    -4.6504    -1.8837 C.ar   1 <0>       0.4200
   11 C11       2.5643    -6.0577    -1.9829 C.ar   1 <0>      -0.1700
   12 C12       1.5949    -6.8051    -2.6667 C.ar   1 <0>      -0.0300
   13 C13       1.7443    -8.1648    -2.7140 C.ar   1 <0>      -0.1800
   14 C14       2.8345    -8.7673    -2.0937 C.ar   1 <0>       0.1600
   15 N15       3.7403    -8.0641    -1.4538 N.ar   1 <0>      -0.4800
   16 C16       3.6513    -6.7351    -1.3731 C.ar   1 <0>       0.1700
   17 C17       4.6125    -5.9672    -0.6925 C.ar   1 <0>      -0.1500
   18 C18       4.4589    -4.5939    -0.6481 C.ar   1 <0>       0.1900
   19 C19       5.4675    -3.7768     0.0672 C.ar   1 <0>      -0.1200
   20 C20       6.5582    -4.3931     0.6804 C.ar   1 <0>      -0.0400
   21 C21       7.4947    -3.6313     1.3450 C.ar   1 <0>      -0.2000
   22 C22       7.3528    -2.2493     1.4049 C.ar   1 <0>       0.2400
   23 N23       8.3018    -1.4804     2.0781 N.pl3  1 <0>      -0.6300
   24 C24       9.5060    -2.1137     2.6214 C.3    1 <0>       0.0900
   25 C25       8.0947    -0.0394     2.2418 C.3    1 <0>       0.0800
   26 C26       6.2661    -1.6327     0.7943 C.ar   1 <0>      -0.2100
   27 C27       5.3304    -2.3899     0.1233 C.ar   1 <0>      -0.0300
   28 N28       3.4269    -3.9855    -1.2359 N.ar   1 <0>      -0.5000
   29 H29       3.5043    -0.8221    -7.5632 H      1 <0>       0.1200
   30 H30       1.8925    -0.0763    -7.4446 H      1 <0>       0.1200
   31 H31       3.3481     0.8925    -7.1115 H      1 <0>       0.1300
   32 H32       1.2135    -1.7882    -5.9075 H      1 <0>       0.1300
   33 H33       2.8253    -2.5340    -6.0261 H      1 <0>       0.1300
   34 H34       3.1486    -2.2231    -3.5873 H      1 <0>       0.0900
   35 H35       1.5368    -1.4773    -3.4688 H      1 <0>       0.0900
   36 H36       0.5062    -3.5712    -4.3066 H      1 <0>       0.0900
   37 H37       2.1180    -4.3170    -4.4251 H      1 <0>       0.0700
   38 H38      -0.5068    -4.3949    -1.8161 H      1 <0>       0.0500
   39 H39       0.5269    -3.5682    -0.6260 H      1 <0>       0.0700
   40 H40      -0.1359    -2.6647    -2.0090 H      1 <0>       0.0600
   41 H41       0.7542    -6.3218    -3.1422 H      1 <0>       0.1400
   42 H42       1.0156    -8.7703    -3.2325 H      1 <0>       0.1400
   43 H43       2.9383    -9.8413    -2.1395 H      1 <0>       0.1700
   44 H44       5.4557    -6.4417    -0.2126 H      1 <0>       0.1500
   45 H45       6.6685    -5.4664     0.6347 H      1 <0>       0.1300
   46 H46       8.3395    -4.1080     1.8199 H      1 <0>       0.1300
   47 H47      10.2948    -2.0995     1.8694 H      1 <0>       0.0500
   48 H48       9.8365    -1.5677     3.5050 H      1 <0>       0.0700
   49 H49       9.2825    -3.1451     2.8941 H      1 <0>       0.0700
   50 H50       7.1997     0.2631     1.6981 H      1 <0>       0.0800
   51 H51       7.9727     0.1922     3.2999 H      1 <0>       0.0600
   52 H52       8.9575     0.4987     1.8493 H      1 <0>       0.0600
   53 H53       6.1579    -0.5592     0.8422 H      1 <0>       0.1300
   54 H54       4.4868    -1.9106    -0.3511 H      1 <0>       0.1300
@<TRIPOS>BOND
   1    1    2 1
   2    1   29 1
   3    1   30 1
   4    1   31 1
   5    2    3 1
   6    2    4 1
   7    2    5 1
   8    5    6 1
   9    5   32 1
  10    5   33 1
  11    6    7 1
  12    6   34 1
  13    6   35 1
  14    7    8 1
  15    7   36 1
  16    7   37 1
  17    8    9 1
  18    8   10 1
  19    9   38 1
  20    9   39 1
  21    9   40 1
  22   10   28 ar
  23   10   11 ar
  24   11   16 ar
  25   11   12 ar
  26   12   13 ar
  27   12   41 1
  28   13   14 ar
  29   13   42 1
  30   14   15 ar
  31   14   43 1
  32   15   16 ar
  33   16   17 ar
  34   17   18 ar
  35   17   44 1
  36   18   19 1
  37   18   28 ar
  38   19   27 ar
  39   19   20 ar
  40   20   21 ar
  41   20   45 1
  42   21   22 ar
  43   21   46 1
  44   22   23 1
  45   22   26 ar
  46   23   24 1
  47   23   25 1
  48   24   47 1
  49   24   48 1
  50   24   49 1
  51   25   50 1
  52   25   51 1
  53   25   52 1
  54   26   27 ar
  55   26   53 1
  56   27   54 1
