@<TRIPOS>MOLECULE
ZINC000018324776
66    69    1     0     0
SMALL
USER_CHARGES
@<TRIPOS>ATOM
1      C1     -0.0187    1.5258    0.0104 C.3      1 ZINC000018324776   -0.1500
2      C2      0.0021   -0.0041    0.0020 C.3      1 ZINC000018324776   -0.1200
3      C3      0.7182   -0.4975   -1.2568 C.3      1 ZINC000018324776   -0.0400
4      C4      0.7386   -2.0043   -1.2651 C.2      1 ZINC000018324776    0.2900
5      N5      1.6787   -2.7529   -0.7376 N.2      1 ZINC000018324776   -0.4800
6      C6      1.3868   -4.0412   -0.9215 C.2      1 ZINC000018324776    0.1300
7      C7      2.2113   -5.2172   -0.4649 C.3      1 ZINC000018324776   -0.0800
8      C8      0.1964   -4.0985   -1.6028 C.2      1 ZINC000018324776   -0.1700
9      C9     -0.6539   -5.1776   -2.1032 C.2      1 ZINC000018324776    0.6000
10     O10    -0.3440   -6.3438   -1.9410 O.2      1 ZINC000018324776   -0.4800
11     N11    -1.7936   -4.8459   -2.7505 N.am     1 ZINC000018324776   -0.6700
12     C12    -2.1366   -3.5211   -2.9296 C.2      1 ZINC000018324776    0.4200
13     C13    -3.3904   -3.2010   -3.6428 C.ar     1 ZINC000018324776   -0.1200
14     C14    -4.2087   -4.2266   -4.1175 C.ar     1 ZINC000018324776    0.0500
15     C15    -5.3780   -3.9215   -4.7826 C.ar     1 ZINC000018324776   -0.7200
16     S16    -6.4104   -5.2177   -5.3817 S.o2     1 ZINC000018324776    2.6900
17     O17    -7.1768   -4.6628   -6.4418 O.2      1 ZINC000018324776   -0.9500
18     O18    -5.5745   -6.3558   -5.5400 O.2      1 ZINC000018324776   -0.9500
19     N19    -7.4817   -5.5886   -4.1746 N.am     1 ZINC000018324776   -1.0000
20     C20    -7.1583   -6.6085   -3.1653 C.3      1 ZINC000018324776    0.1200
21     C21    -7.3937   -6.0090   -1.7748 C.3      1 ZINC000018324776    0.0400
22     N22    -8.7594   -5.4731   -1.7009 N.3      1 ZINC000018324776   -0.5300
23     C23    -9.0835   -5.0446   -0.3336 C.3      1 ZINC000018324776    0.0500
24     C24   -10.5776   -4.7290   -0.2387 C.3      1 ZINC000018324776   -0.1500
25     C25    -8.9533   -4.3746   -2.6567 C.3      1 ZINC000018324776    0.0400
26     C26    -8.7793   -4.9027   -4.0798 C.3      1 ZINC000018324776    0.1200
27     C27    -5.7439   -2.6015   -4.9810 C.ar     1 ZINC000018324776    0.0500
28     C28    -4.9419   -1.5768   -4.5155 C.ar     1 ZINC000018324776   -0.2300
29     C29    -3.7668   -1.8664   -3.8408 C.ar     1 ZINC000018324776    0.2400
30     O30    -2.9780   -0.8606   -3.3830 O.3      1 ZINC000018324776   -0.2700
31     C31    -3.4202    0.4752   -3.6319 C.3      1 ZINC000018324776    0.0400
32     C32    -2.4100    1.4642   -3.0468 C.3      1 ZINC000018324776   -0.1500
33     N33    -1.3966   -2.5429   -2.4930 N.2      1 ZINC000018324776   -0.2700
34     N34    -0.2036   -2.7889   -1.8075 N.pl3    1 ZINC000018324776   -0.2800
35     H35     1.0039    1.9031    0.0027 H        1 ZINC000018324776    0.0600
36     H36    -0.5459    1.8868   -0.8726 H        1 ZINC000018324776    0.0600
37     H37    -0.5289    1.8773    0.9072 H        1 ZINC000018324776    0.0600
38     H38     0.5293   -0.3651    0.8851 H        1 ZINC000018324776    0.0700
39     H39    -1.0205   -0.3814    0.0098 H        1 ZINC000018324776    0.0600
40     H40     0.1910   -0.1364   -2.1398 H        1 ZINC000018324776    0.0900
41     H41     1.7408   -0.1202   -1.2645 H        1 ZINC000018324776    0.1000
42     H42     1.8998   -5.5121    0.5372 H        1 ZINC000018324776    0.0800
43     H43     2.0654   -6.0515   -1.1510 H        1 ZINC000018324776    0.0800
44     H44     3.2650   -4.9385   -0.4506 H        1 ZINC000018324776    0.0800
45     H45    -2.3743   -5.5440   -3.0917 H        1 ZINC000018324776    0.4200
46     H46    -3.9267   -5.2579   -3.9648 H        1 ZINC000018324776    0.1500
47     H47    -7.8021   -7.4772   -3.3033 H        1 ZINC000018324776    0.0900
48     H48    -6.1138   -6.9037   -3.2648 H        1 ZINC000018324776    0.0900
49     H49    -7.2653   -6.7833   -1.0185 H        1 ZINC000018324776    0.0900
50     H50    -6.6778   -5.2061   -1.5990 H        1 ZINC000018324776    0.0400
51     H51    -8.8357   -5.8431    0.3657 H        1 ZINC000018324776    0.0800
52     H52    -8.5073   -4.1531   -0.0861 H        1 ZINC000018324776    0.0300
53     H53   -10.8254   -3.9305   -0.9381 H        1 ZINC000018324776    0.0600
54     H54   -11.1537   -5.6206   -0.4863 H        1 ZINC000018324776    0.0700
55     H55   -10.8180   -4.4111    0.7758 H        1 ZINC000018324776    0.0600
56     H56    -9.9560   -3.9635   -2.5399 H        1 ZINC000018324776    0.0900
57     H57    -8.2157   -3.5944   -2.4686 H        1 ZINC000018324776    0.0400
58     H58    -8.8084   -4.0719   -4.7848 H        1 ZINC000018324776    0.0900
59     H59    -9.5776   -5.6088   -4.3084 H        1 ZINC000018324776    0.0900
60     H60    -6.6610   -2.3709   -5.5027 H        1 ZINC000018324776    0.1500
61     H61    -5.2334   -0.5491   -4.6742 H        1 ZINC000018324776    0.1500
62     H62    -3.5050    0.6356   -4.7067 H        1 ZINC000018324776    0.0700
63     H63    -4.3924    0.6293   -3.1638 H        1 ZINC000018324776    0.0700
64     H64    -2.3252    1.3039   -1.9720 H        1 ZINC000018324776    0.0700
65     H65    -1.4378    1.3102   -3.5149 H        1 ZINC000018324776    0.0700
66     H66    -2.7473    2.4832   -3.2367 H        1 ZINC000018324776    0.0800
@<TRIPOS>BOND
1     1     2     1
2     1     35    1
3     1     36    1
4     1     37    1
5     2     3     1
6     2     38    1
7     2     39    1
8     3     4     1
9     3     40    1
10    3     41    1
11    4     34    1
12    4     5     2
13    5     6     1
14    6     7     1
15    6     8     2
16    7     42    1
17    7     43    1
18    7     44    1
19    8     34    1
20    8     9     1
21    9     10    2
22    9     11    am
23    11    12    1
24    11    45    1
25    12    13    1
26    12    33    2
27    13    29    ar
28    13    14    ar
29    14    15    ar
30    14    46    1
31    15    16    1
32    15    27    ar
33    16    17    2
34    16    18    2
35    16    19    am
36    19    26    1
37    19    20    1
38    20    21    1
39    20    47    1
40    20    48    1
41    21    22    1
42    21    49    1
43    21    50    1
44    22    23    1
45    22    25    1
46    23    24    1
47    23    51    1
48    23    52    1
49    24    53    1
50    24    54    1
51    24    55    1
52    25    26    1
53    25    56    1
54    25    57    1
55    26    58    1
56    26    59    1
57    27    28    ar
58    27    60    1
59    28    29    ar
60    28    61    1
61    29    30    1
62    30    31    1
63    31    32    1
64    31    62    1
65    31    63    1
66    32    64    1
67    32    65    1
68    32    66    1
69    33    34    1
@<TRIPOS>SUBSTRUCTURE
1   ZINC000018324776 1     RESIDUE    1   A     ZIN   1
