@<TRIPOS>MOLECULE
ZINC000019594549
  40   42    0    0    0
SMALL
USER_CHARGES
NO_NAME
@<TRIPOS>ATOM
    1 C1        0.1526     1.8104    -0.1420 C.3    1 <0>      -0.1700
    2 C2        0.0611     0.2840    -0.0904 C.3    1 <0>       0.1000
    3 N3        0.7270    -0.2851    -1.2647 N.pl3  1 <0>      -0.4800
    4 C4        0.0049    -0.4878    -2.3739 C.2    1 <0>       0.1500
    5 C5        0.5551    -1.0193    -3.5239 C.2    1 <0>      -0.2800
    6 C6       -0.2686    -1.2262    -4.7198 C.2    1 <0>       0.5300
    7 O7       -1.4554    -0.9270    -4.7048 O.co2  1 <0>      -0.6900
    8 O8        0.2309    -1.6981    -5.7328 O.co2  1 <0>      -0.6600
    9 C9        1.9856    -1.3743    -3.5268 C.2    1 <0>       0.4100
   10 O10       2.5215    -1.8461    -4.5145 O.2    1 <0>      -0.4300
   11 C11       2.7387    -1.1340    -2.2862 C.ar   1 <0>      -0.2000
   12 C12       4.1019    -1.4393    -2.1934 C.ar   1 <0>      -0.0100
   13 C13       4.7416    -1.1901    -1.0079 C.ar   1 <0>       0.0000
   14 F14       6.0566    -1.4678    -0.8709 F      1 <0>      -0.1300
   15 C15       4.0202    -0.6450     0.0586 C.ar   1 <0>       0.3900
   16 N16       4.6683    -0.3934     1.2571 N.pl3  1 <0>      -0.6600
   17 C17       5.3071     0.9068     1.5131 C.3    1 <0>       0.1200
   18 C18       4.8246     1.4260     2.8715 C.3    1 <0>      -0.0200
   19 N19       5.0812     0.4114     3.9015 N.4    1 <0>      -0.5000
   20 H20       6.0608     0.1695     3.8969 H      1 <0>       0.4300
   21 H21       4.8318     0.7817     4.8063 H      1 <0>       0.4300
   22 C22       4.2811    -0.7897     3.6307 C.3    1 <0>      -0.0200
   23 C23       4.7319    -1.4167     2.3120 C.3    1 <0>       0.1200
   24 N24       2.7325    -0.3640    -0.0521 N.ar   1 <0>      -0.5100
   25 C25       2.0681    -0.5823    -1.1804 C.ar   1 <0>       0.4000
   26 H26       1.2002     2.1116    -0.1472 H      1 <0>       0.0600
   27 H27      -0.3343     2.1732    -1.0472 H      1 <0>       0.0700
   28 H28      -0.3428     2.2338     0.7318 H      1 <0>       0.0700
   29 H29       0.5481    -0.0788     0.8148 H      1 <0>       0.0900
   30 H30      -0.9864    -0.0172    -0.0851 H      1 <0>       0.0900
   31 H31      -1.0431    -0.2272    -2.3691 H      1 <0>       0.1800
   32 H32       4.6345    -1.8602    -3.0333 H      1 <0>       0.1700
   33 H33       6.3902     0.7856     1.5310 H      1 <0>       0.0900
   34 H34       5.0276     1.6126     0.7309 H      1 <0>       0.1200
   35 H35       5.3603     2.3416     3.1219 H      1 <0>       0.1400
   36 H36       3.7553     1.6321     2.8229 H      1 <0>       0.1400
   37 H37       4.4164    -1.5067     4.4404 H      1 <0>       0.1400
   38 H38       3.2283    -0.5165     3.5590 H      1 <0>       0.1300
   39 H39       4.0743    -2.2480     2.0581 H      1 <0>       0.1200
   40 H40       5.7575    -1.7731     2.4076 H      1 <0>       0.0900
@<TRIPOS>BOND
   1    1    2 1
   2    1   26 1
   3    1   27 1
   4    1   28 1
   5    2    3 1
   6    2   29 1
   7    2   30 1
   8    3   25 1
   9    3    4 1
  10    4    5 2
  11    4   31 1
  12    5    6 1
  13    5    9 1
  14    6    7 ar
  15    6    8 ar
  16    9   10 2
  17    9   11 1
  18   11   25 ar
  19   11   12 ar
  20   12   13 ar
  21   12   32 1
  22   13   14 1
  23   13   15 ar
  24   15   16 1
  25   15   24 ar
  26   16   23 1
  27   16   17 1
  28   17   18 1
  29   17   33 1
  30   17   34 1
  31   18   19 1
  32   18   35 1
  33   18   36 1
  34   19   20 1
  35   19   21 1
  36   19   22 1
  37   22   23 1
  38   22   37 1
  39   22   38 1
  40   23   39 1
  41   23   40 1
  42   24   25 ar
