@<TRIPOS>MOLECULE
ZINC000013813283
29    31    1     0     0
SMALL
USER_CHARGES
@<TRIPOS>ATOM
1      C1     -0.0184    1.5028    0.0103 C.3      1 ZINC000013813283   -0.1200
2      C2      0.0021   -0.0041    0.0020 C.ar     1 ZINC000013813283   -0.0800
3      C3      0.0055   -0.6712   -1.1822 C.ar     1 ZINC000013813283   -0.0500
4      C4      0.0241   -2.0803   -1.2023 C.ar     1 ZINC000013813283    0.0600
5      C5      0.0396   -2.7931    0.0168 C.ar     1 ZINC000013813283    0.1400
6      C6      0.0363   -2.0985    1.2229 C.ar     1 ZINC000013813283   -0.1000
7      C7      0.0232   -0.7066    1.2180 C.ar     1 ZINC000013813283   -0.1400
8      C8      0.0197    0.0323    2.4932 C.2      1 ZINC000013813283    0.3800
9      O9      0.0282   -0.5721    3.5440 O.2      1 ZINC000013813283   -0.4600
10     N10     0.0574   -4.1728    0.0174 N.pl3    1 ZINC000013813283   -0.4700
11     C11     0.0729   -4.9210    1.2769 C.3      1 ZINC000013813283    0.0700
12     C12     0.0599   -4.8236   -1.1789 C.2      1 ZINC000013813283    0.4000
13     N13     0.0760   -6.1426   -1.2655 N.2      1 ZINC000013813283   -0.6100
14     C14     0.0777   -6.7633   -2.4431 C.2      1 ZINC000013813283    0.6400
15     O15     0.0925   -7.9816   -2.4463 O.2      1 ZINC000013813283   -0.5600
16     N16     0.0639   -6.1320   -3.6255 N.pl3    1 ZINC000013813283   -0.7200
17     C17     0.0466   -4.7809   -3.7012 C.2      1 ZINC000013813283    0.5400
18     O18     0.0337   -4.2060   -4.7721 O.2      1 ZINC000013813283   -0.5300
19     C19     0.0437   -4.0331   -2.4225 C.2      1 ZINC000013813283    0.0800
20     N20     0.0263   -2.7269   -2.3783 N.2      1 ZINC000013813283   -0.3800
21     H21     1.0042    1.8801    0.0026 H        1 ZINC000013813283    0.0800
22     H22    -0.5455    1.8639   -0.8728 H        1 ZINC000013813283    0.0800
23     H23    -0.5286    1.8543    0.9071 H        1 ZINC000013813283    0.0700
24     H24    -0.0063   -0.1198   -2.1108 H        1 ZINC000013813283    0.1500
25     H25     0.0477   -2.6373    2.1588 H        1 ZINC000013813283    0.1500
26     H26     0.0095    1.1123    2.4915 H        1 ZINC000013813283    0.1100
27     H27    -0.9509   -5.1198    1.5940 H        1 ZINC000013813283    0.0800
28     H28     0.5983   -5.8650    1.1324 H        1 ZINC000013813283    0.1000
29     H29     0.5826   -4.3348    2.0415 H        1 ZINC000013813283    0.0800
@<TRIPOS>BOND
1     1     2     1
2     1     21    1
3     1     22    1
4     1     23    1
5     2     7     ar
6     2     3     ar
7     3     4     ar
8     3     24    1
9     4     20    1
10    4     5     ar
11    5     6     ar
12    5     10    1
13    6     7     ar
14    6     25    1
15    7     8     1
16    8     9     2
17    8     26    1
18    10    11    1
19    10    12    1
20    11    27    1
21    11    28    1
22    11    29    1
23    12    19    1
24    12    13    2
25    13    14    1
26    14    15    2
27    14    16    1
28    16    17    1
29    17    18    2
30    17    19    1
31    19    20    2
@<TRIPOS>SUBSTRUCTURE
1   ZINC000013813283 1     RESIDUE    1   A     ZIN   1
