@<TRIPOS>MOLECULE
ZINC000058568788
58    60    1     0     0
SMALL
USER_CHARGES
@<TRIPOS>ATOM
1      C1     -0.4287    9.7223   -7.6967 C.3      1 ZINC000058568788   -0.1400
2      C2     -0.8801    8.3167   -7.3941 C.2      1 ZINC000058568788   -0.0700
3      C3     -0.1838    7.5611   -6.5438 C.2      1 ZINC000058568788   -0.1700
4      C4     -0.6228    6.1940   -6.2494 C.2      1 ZINC000058568788    0.2100
5      C5      0.0980    5.4149   -5.3706 C.2      1 ZINC000058568788   -0.2800
6      C6     -0.2547    4.0734   -5.1879 C.2      1 ZINC000058568788    0.0800
7      C7     -1.1942    3.5027   -6.0211 C.2      1 ZINC000058568788   -0.3200
8      C8     -1.7657    4.3121   -7.1594 C.3      1 ZINC000058568788    0.1300
9      O9     -1.7337    5.7010   -6.8403 O.3      1 ZINC000058568788   -0.3000
10     C10    -1.5974    2.1608   -5.8760 C.2      1 ZINC000058568788    0.4300
11     O11    -2.4773    1.6849   -6.5679 O.2      1 ZINC000058568788   -0.4400
12     C12    -0.9012    1.3507   -4.8414 C.3      1 ZINC000058568788    0.0500
13     C13     0.4577    0.8991   -5.3803 C.3      1 ZINC000058568788   -0.1800
14     O14    -1.5743    0.2268   -4.2414 O.3      1 ZINC000058568788   -0.3000
15     C15    -0.8898   -0.0486   -3.0940 C.2      1 ZINC000058568788    0.5000
16     O16    -0.8135   -1.1318   -2.5643 O.2      1 ZINC000058568788   -0.4200
17     C17    -0.2349    1.2354   -2.5884 C.3      1 ZINC000058568788   -0.2000
18     H18     0.8507    1.1377   -2.5839 H        1 ZINC000058568788    0.1500
19     C19    -0.7416    1.5850   -1.2129 C.2      1 ZINC000058568788    0.3800
20     O20    -1.7316    2.2653   -1.0890 O.2      1 ZINC000058568788   -0.4300
21     C21    -0.0127    1.0858    0.0080 C.3      1 ZINC000058568788   -0.1700
22     C22    -0.7288    1.5792    1.2668 C.3      1 ZINC000058568788   -0.1100
23     C23     0.0111    1.0724    2.5063 C.3      1 ZINC000058568788   -0.1200
24     C24    -0.7050    1.5658    3.7651 C.3      1 ZINC000058568788   -0.1200
25     C25     0.0350    1.0590    5.0047 C.3      1 ZINC000058568788   -0.1200
26     C26    -0.6811    1.5524    6.2635 C.3      1 ZINC000058568788   -0.1300
27     C27     0.0589    1.0456    7.5030 C.3      1 ZINC000058568788   -0.1500
28     C28    -0.6826    2.2820   -3.6114 C.3      1 ZINC000058568788   -0.1100
29     H29    -1.6140    2.7576   -3.3038 H        1 ZINC000058568788    0.1200
30     C30     0.3659    3.2982   -4.0398 C.3      1 ZINC000058568788   -0.0900
31     H31     0.5730    9.6977   -8.1258 H        1 ZINC000058568788    0.0800
32     H32    -1.1172   10.1800   -8.4071 H        1 ZINC000058568788    0.0700
33     H33    -0.4154   10.3057   -6.7761 H        1 ZINC000058568788    0.0800
34     H34    -1.7676    7.9212   -7.8658 H        1 ZINC000058568788    0.1300
35     H35     0.7037    7.9566   -6.0721 H        1 ZINC000058568788    0.1500
36     H36     0.9296    5.8372   -4.8261 H        1 ZINC000058568788    0.1500
37     H37    -1.1774    4.1347   -8.0597 H        1 ZINC000058568788    0.0700
38     H38    -2.7966    4.0062   -7.3382 H        1 ZINC000058568788    0.1200
39     H39     0.3100    0.1386   -6.1470 H        1 ZINC000058568788    0.0900
40     H40     0.9796    1.7533   -5.8117 H        1 ZINC000058568788    0.0900
41     H41     1.0516    0.4838   -4.5661 H        1 ZINC000058568788    0.0800
42     H42     0.0021   -0.0041    0.0020 H        1 ZINC000058568788    0.1100
43     H43     1.0099    1.4631    0.0003 H        1 ZINC000058568788    0.1100
44     H44    -0.7436    2.6691    1.2728 H        1 ZINC000058568788    0.0700
45     H45    -1.7514    1.2020    1.2746 H        1 ZINC000058568788    0.0700
46     H46     0.0259   -0.0175    2.5003 H        1 ZINC000058568788    0.0600
47     H47     1.0337    1.4497    2.4986 H        1 ZINC000058568788    0.0600
48     H48    -0.7198    2.6557    3.7711 H        1 ZINC000058568788    0.0600
49     H49    -1.7276    1.1885    3.7729 H        1 ZINC000058568788    0.0600
50     H50     0.0498   -0.0309    4.9987 H        1 ZINC000058568788    0.0600
51     H51     1.0576    1.4363    4.9969 H        1 ZINC000058568788    0.0600
52     H52    -0.6959    2.6423    6.2695 H        1 ZINC000058568788    0.0600
53     H53    -1.7037    1.1751    6.2712 H        1 ZINC000058568788    0.0600
54     H54     1.0815    1.4228    7.4953 H        1 ZINC000058568788    0.0500
55     H55    -0.4513    1.3971    8.3998 H        1 ZINC000058568788    0.0500
56     H56     0.0736   -0.0443    7.4970 H        1 ZINC000058568788    0.0500
57     H57     1.2727    2.7947   -4.3749 H        1 ZINC000058568788    0.1100
58     H58     0.5955    3.9718   -3.2141 H        1 ZINC000058568788    0.1000
@<TRIPOS>BOND
1     1     2     1
2     1     31    1
3     1     32    1
4     1     33    1
5     2     3     2
6     2     34    1
7     3     4     1
8     3     35    1
9     4     9     1
10    4     5     2
11    5     6     1
12    5     36    1
13    6     30    1
14    6     7     2
15    7     8     1
16    7     10    1
17    8     9     1
18    8     37    1
19    8     38    1
20    10    11    2
21    10    12    1
22    12    28    1
23    12    13    1
24    12    14    1
25    13    39    1
26    13    40    1
27    13    41    1
28    14    15    1
29    15    16    2
30    15    17    1
31    17    18    1
32    17    19    1
33    17    28    1
34    19    20    2
35    19    21    1
36    21    22    1
37    21    42    1
38    21    43    1
39    22    23    1
40    22    44    1
41    22    45    1
42    23    24    1
43    23    46    1
44    23    47    1
45    24    25    1
46    24    48    1
47    24    49    1
48    25    26    1
49    25    50    1
50    25    51    1
51    26    27    1
52    26    52    1
53    26    53    1
54    27    54    1
55    27    55    1
56    27    56    1
57    28    29    1
58    28    30    1
59    30    57    1
60    30    58    1
@<TRIPOS>SUBSTRUCTURE
1   ZINC000058568788 1     RESIDUE    1   A     ZIN   1
