@<TRIPOS>MOLECULE
ZINC000018219951
41    43    1     0     0
SMALL
USER_CHARGES
@<TRIPOS>ATOM
1      C1     -0.0176    1.4478    0.0100 C.3      1 ZINC000018219951    0.0400
2      O2      0.0021   -0.0041    0.0020 O.3      1 ZINC000018219951   -0.3600
3      C3     -1.1855   -0.6297    0.0100 C.2      1 ZINC000018219951    0.4600
4      O4     -2.2076    0.0145    0.0232 O.2      1 ZINC000018219951   -0.5000
5      C5     -1.2439   -2.1355    0.0025 C.3      1 ZINC000018219951   -0.0300
6      C6     -2.6831   -2.5824    0.0138 C.2      1 ZINC000018219951   -0.2900
7      C7     -3.3338   -2.8889   -1.1624 C.2      1 ZINC000018219951    0.2500
8      C8     -2.6068   -2.7789   -2.4778 C.3      1 ZINC000018219951   -0.1100
9      N9     -4.6016   -3.2815   -1.1343 N.2      1 ZINC000018219951   -0.5500
10     C10    -5.2649   -3.3876    0.0059 C.2      1 ZINC000018219951    0.5600
11     N11    -6.5514   -3.7642    0.2814 N.pl3    1 ZINC000018219951   -0.6200
12     C12    -6.7333   -3.7013    1.6385 C.2      1 ZINC000018219951    0.5500
13     N13    -7.9043   -4.0071    2.3079 N.pl3    1 ZINC000018219951   -0.6900
14     C14    -7.9638   -3.8969    3.7675 C.3      1 ZINC000018219951    0.1800
15     C15    -9.3399   -4.2837    4.2448 C.ar     1 ZINC000018219951   -0.1200
16     C16   -10.3276   -3.3231    4.3578 C.ar     1 ZINC000018219951   -0.1000
17     C17   -11.5899   -3.6778    4.7956 C.ar     1 ZINC000018219951   -0.1200
18     C18   -11.8647   -4.9932    5.1198 C.ar     1 ZINC000018219951   -0.1000
19     C19   -10.8773   -5.9540    5.0059 C.ar     1 ZINC000018219951   -0.1200
20     C20    -9.6162   -5.6000    4.5641 C.ar     1 ZINC000018219951   -0.1000
21     N21    -5.6224   -3.3059    2.1958 N.2      1 ZINC000018219951   -0.3200
22     N22    -4.6735   -3.0993    1.1865 N.am     1 ZINC000018219951   -0.3600
23     C23    -3.3859   -2.7007    1.2211 C.2      1 ZINC000018219951    0.5600
24     O24    -2.8427   -2.4442    2.2847 O.2      1 ZINC000018219951   -0.5100
25     H25     1.0050    1.8251    0.0023 H        1 ZINC000018219951    0.1000
26     H26    -0.5448    1.8089   -0.8731 H        1 ZINC000018219951    0.0600
27     H27    -0.5278    1.7993    0.9068 H        1 ZINC000018219951    0.0600
28     H28    -0.7531   -2.5137   -0.8943 H        1 ZINC000018219951    0.1200
29     H29    -0.7361   -2.5233    0.8856 H        1 ZINC000018219951    0.1200
30     H30    -2.1272   -3.7301   -2.7086 H        1 ZINC000018219951    0.1000
31     H31    -3.3174   -2.5296   -3.2659 H        1 ZINC000018219951    0.0900
32     H32    -1.8500   -1.9973   -2.4104 H        1 ZINC000018219951    0.0800
33     H33    -7.2189   -4.0292   -0.3706 H        1 ZINC000018219951    0.4500
34     H34    -8.6861   -4.2946    1.8109 H        1 ZINC000018219951    0.4200
35     H35    -7.2245   -4.5628    4.2126 H        1 ZINC000018219951    0.0900
36     H36    -7.7521   -2.8694    4.0633 H        1 ZINC000018219951    0.0900
37     H37   -10.1129   -2.2954    4.1045 H        1 ZINC000018219951    0.1300
38     H38   -12.3613   -2.9273    4.8846 H        1 ZINC000018219951    0.1300
39     H39   -12.8507   -5.2703    5.4625 H        1 ZINC000018219951    0.1300
40     H40   -11.0919   -6.9816    5.2596 H        1 ZINC000018219951    0.1300
41     H41    -8.8448   -6.3506    4.4750 H        1 ZINC000018219951    0.1300
@<TRIPOS>BOND
1     1     2     1
2     1     25    1
3     1     26    1
4     1     27    1
5     2     3     1
6     3     4     2
7     3     5     1
8     5     6     1
9     5     28    1
10    5     29    1
11    6     23    1
12    6     7     2
13    7     8     1
14    7     9     1
15    8     30    1
16    8     31    1
17    8     32    1
18    9     10    2
19    10    22    1
20    10    11    1
21    11    12    1
22    11    33    1
23    12    13    1
24    12    21    2
25    13    14    1
26    13    34    1
27    14    15    1
28    14    35    1
29    14    36    1
30    15    20    ar
31    15    16    ar
32    16    17    ar
33    16    37    1
34    17    18    ar
35    17    38    1
36    18    19    ar
37    18    39    1
38    19    20    ar
39    19    40    1
40    20    41    1
41    21    22    1
42    22    23    am
43    23    24    2
@<TRIPOS>SUBSTRUCTURE
1   ZINC000018219951 1     RESIDUE    1   A     ZIN   1
