@<TRIPOS>MOLECULE
ZINC000040442496
47    49    1     0     0
SMALL
USER_CHARGES
@<TRIPOS>ATOM
1      C1     -0.2330    1.6072   -0.6312 C.3      1 ZINC000040442496   -0.1000
2      C2     -0.1289    0.1309   -0.3471 C.2      1 ZINC000040442496    0.2400
3      N3     -0.2558   -0.8225   -1.2318 N.2      1 ZINC000040442496   -0.5000
4      C4     -0.1054   -2.0093   -0.6360 C.2      1 ZINC000040442496    0.0600
5      C5      0.1271   -1.7857    0.6875 C.2      1 ZINC000040442496   -0.0200
6      C6      0.3527   -2.8063    1.7301 C.ar     1 ZINC000040442496    0.3100
7      C7      0.4494   -2.4376    3.0776 C.ar     1 ZINC000040442496   -0.3000
8      C8      0.6611   -3.4286    4.0175 C.ar     1 ZINC000040442496    0.2000
9      N9      0.7654   -4.6876    3.6201 N.ar     1 ZINC000040442496   -0.5600
10     C10     0.6701   -5.0096    2.3378 C.ar     1 ZINC000040442496    0.5700
11     N11     0.7852   -6.3391    1.9657 N.pl3    1 ZINC000040442496   -0.6300
12     C12     0.8739   -7.3337    2.9442 C.ar     1 ZINC000040442496    0.2300
13     C13     0.3038   -7.1327    4.1948 C.ar     1 ZINC000040442496   -0.1500
14     C14     0.3932   -8.1172    5.1591 C.ar     1 ZINC000040442496    0.0000
15     C15     1.0495   -9.3022    4.8809 C.ar     1 ZINC000040442496   -0.6900
16     S16     1.1608  -10.5559    6.1139 S.o2     1 ZINC000040442496    2.5000
17     C17    -0.3163  -11.5769    5.8560 C.3      1 ZINC000040442496   -0.6500
18     O18     2.3340  -11.2809    5.7716 O.2      1 ZINC000040442496   -0.9400
19     O19     1.0693   -9.8481    7.3426 O.2      1 ZINC000040442496   -0.9400
20     C20     1.6182   -9.5056    3.6369 C.ar     1 ZINC000040442496    0.0000
21     C21     1.5274   -8.5274    2.6661 C.ar     1 ZINC000040442496   -0.1800
22     N22     0.4623   -4.0948    1.4044 N.ar     1 ZINC000040442496   -0.5500
23     N23     0.1158   -0.4186    0.8598 N.pl3    1 ZINC000040442496   -0.4400
24     C24     0.3212    0.3018    2.1188 C.3      1 ZINC000040442496    0.1200
25     C25     1.7750    0.1405    2.5674 C.3      1 ZINC000040442496   -0.1800
26     C26     0.0126    1.7862    1.9132 C.3      1 ZINC000040442496   -0.1800
27     H27     0.7671    2.0319   -0.7178 H        1 ZINC000040442496    0.0800
28     H28    -0.7748    1.7603   -1.5645 H        1 ZINC000040442496    0.0900
29     H29    -0.7665    2.0972    0.1833 H        1 ZINC000040442496    0.1000
30     H30    -0.1587   -2.9742   -1.1182 H        1 ZINC000040442496    0.1800
31     H31     0.3611   -1.4032    3.3753 H        1 ZINC000040442496    0.1600
32     H32     0.7409   -3.1788    5.0651 H        1 ZINC000040442496    0.1800
33     H33     0.8043   -6.5799    1.0262 H        1 ZINC000040442496    0.4300
34     H34    -0.2086   -6.2073    4.4129 H        1 ZINC000040442496    0.1500
35     H35    -0.0495   -7.9613    6.1318 H        1 ZINC000040442496    0.1400
36     H36    -0.2985  -11.9938    4.8490 H        1 ZINC000040442496    0.1300
37     H37    -0.3295  -12.3874    6.5846 H        1 ZINC000040442496    0.1300
38     H38    -1.2084  -10.9629    5.9793 H        1 ZINC000040442496    0.1300
39     H39     2.1303  -10.4320    3.4228 H        1 ZINC000040442496    0.1500
40     H40     1.9717   -8.6869    1.6948 H        1 ZINC000040442496    0.1400
41     H41    -0.3419   -0.1047    2.8824 H        1 ZINC000040442496    0.1000
42     H42     1.9045    0.5942    3.5500 H        1 ZINC000040442496    0.0800
43     H43     2.0232   -0.9195    2.6210 H        1 ZINC000040442496    0.0700
44     H44     2.4331    0.6319    1.8507 H        1 ZINC000040442496    0.0700
45     H45    -1.0411    1.9069    1.6617 H        1 ZINC000040442496    0.0800
46     H46     0.2323    2.3334    2.8300 H        1 ZINC000040442496    0.0800
47     H47     0.6268    2.1760    1.1014 H        1 ZINC000040442496    0.0900
@<TRIPOS>BOND
1     1     2     1
2     1     27    1
3     1     28    1
4     1     29    1
5     2     23    1
6     2     3     2
7     3     4     1
8     4     5     2
9     4     30    1
10    5     6     1
11    5     23    1
12    6     22    ar
13    6     7     ar
14    7     8     ar
15    7     31    1
16    8     9     ar
17    8     32    1
18    9     10    ar
19    10    11    1
20    10    22    ar
21    11    12    1
22    11    33    1
23    12    21    ar
24    12    13    ar
25    13    14    ar
26    13    34    1
27    14    15    ar
28    14    35    1
29    15    16    1
30    15    20    ar
31    16    17    1
32    16    18    2
33    16    19    2
34    17    36    1
35    17    37    1
36    17    38    1
37    20    21    ar
38    20    39    1
39    21    40    1
40    23    24    1
41    24    25    1
42    24    26    1
43    24    41    1
44    25    42    1
45    25    43    1
46    25    44    1
47    26    45    1
48    26    46    1
49    26    47    1
@<TRIPOS>SUBSTRUCTURE
1   ZINC000040442496 1     RESIDUE    1   A     ZIN   1
