@<TRIPOS>MOLECULE
ZINC000000195139
36    38    1     0     0
SMALL
USER_CHARGES
@<TRIPOS>ATOM
1      C1     -0.4898    1.4309   -0.0167 C.3      1 ZINC000000195139    0.0700
2      N2     -0.3205   -0.0243   -0.0161 N.pl3    1 ZINC000000195139   -0.4400
3      C3     -0.1024   -0.8161   -1.0995 C.2      1 ZINC000000195139    0.5400
4      N4     -0.0025   -0.3752   -2.4004 N.pl3    1 ZINC000000195139   -0.6400
5      C5      0.1114   -1.2980   -3.4445 C.ar     1 ZINC000000195139    0.1600
6      C6     -0.4673   -2.5554   -3.3284 C.ar     1 ZINC000000195139   -0.1200
7      C7     -0.3529   -3.4646   -4.3616 C.ar     1 ZINC000000195139   -0.0900
8      C8      0.3373   -3.1246   -5.5106 C.ar     1 ZINC000000195139   -0.1400
9      C9      0.9150   -1.8738   -5.6293 C.ar     1 ZINC000000195139   -0.1000
10     C10     0.7987   -0.9575   -4.6026 C.ar     1 ZINC000000195139   -0.1500
11     N11    -0.0011   -2.0710   -0.7109 N.2      1 ZINC000000195139   -0.5200
12     C12    -0.1453   -2.1509    0.6127 C.2      1 ZINC000000195139    0.3500
13     C13    -0.3458   -0.8606    1.0915 C.2      1 ZINC000000195139   -0.1700
14     C14    -0.5280   -0.6610    2.4716 C.2      1 ZINC000000195139    0.6000
15     O15    -0.7056    0.4608    2.9134 O.2      1 ZINC000000195139   -0.5200
16     N16    -0.5045   -1.7245    3.3013 N.am     1 ZINC000000195139   -0.5500
17     C17    -0.6943   -1.5217    4.7397 C.3      1 ZINC000000195139    0.0800
18     C18    -0.3100   -2.9676    2.8281 C.2      1 ZINC000000195139    0.7100
19     O19    -0.2949   -3.9025    3.6055 O.2      1 ZINC000000195139   -0.5300
20     N20    -0.1273   -3.2025    1.5150 N.am     1 ZINC000000195139   -0.5100
21     C21     0.0811   -4.5721    1.0386 C.3      1 ZINC000000195139    0.0900
22     H22     0.4829    1.9099    0.0954 H        1 ZINC000000195139    0.0800
23     H23    -0.9424    1.7436   -0.9577 H        1 ZINC000000195139    0.0900
24     H24    -1.1357    1.7219    0.8116 H        1 ZINC000000195139    0.1100
25     H25    -0.0112    0.5756   -2.5923 H        1 ZINC000000195139    0.4200
26     H26    -1.0059   -2.8218   -2.4309 H        1 ZINC000000195139    0.1400
27     H27    -0.8026   -4.4424   -4.2719 H        1 ZINC000000195139    0.1300
28     H28     0.4256   -3.8376   -6.3170 H        1 ZINC000000195139    0.1200
29     H29     1.4536   -1.6115   -6.5279 H        1 ZINC000000195139    0.1300
30     H30     1.2500    0.0192   -4.6959 H        1 ZINC000000195139    0.1300
31     H31    -1.7558   -1.5857    4.9787 H        1 ZINC000000195139    0.0800
32     H32    -0.1510   -2.2901    5.2898 H        1 ZINC000000195139    0.1000
33     H33    -0.3171   -0.5384    5.0208 H        1 ZINC000000195139    0.0900
34     H34     0.0562   -5.2588    1.8847 H        1 ZINC000000195139    0.1000
35     H35    -0.7073   -4.8354    0.3335 H        1 ZINC000000195139    0.0800
36     H36     1.0496   -4.6410    0.5431 H        1 ZINC000000195139    0.0800
@<TRIPOS>BOND
1     1     2     1
2     1     22    1
3     1     23    1
4     1     24    1
5     2     13    1
6     2     3     1
7     3     4     1
8     3     11    2
9     4     5     1
10    4     25    1
11    5     10    ar
12    5     6     ar
13    6     7     ar
14    6     26    1
15    7     8     ar
16    7     27    1
17    8     9     ar
18    8     28    1
19    9     10    ar
20    9     29    1
21    10    30    1
22    11    12    1
23    12    20    1
24    12    13    2
25    13    14    1
26    14    15    2
27    14    16    am
28    16    17    1
29    16    18    am
30    17    31    1
31    17    32    1
32    17    33    1
33    18    19    2
34    18    20    am
35    20    21    1
36    21    34    1
37    21    35    1
38    21    36    1
@<TRIPOS>SUBSTRUCTURE
1   ZINC000000195139 1     RESIDUE    1   A     ZIN   1
