@<TRIPOS>MOLECULE
ZINC000014946006
  32   34    0    0    0
SMALL
USER_CHARGES
NO_NAME
@<TRIPOS>ATOM
    1 O1        0.3203    -0.3708    -0.3374 O.2    1 <0>      -0.4300
    2 C2        0.1088     0.8240    -0.2946 C.2    1 <0>       0.5400
    3 N3       -1.0973     1.4126    -0.3760 N.am   1 <0>      -0.6900
    4 C4       -0.9675     2.7479    -0.2940 C.2    1 <0>       0.5800
    5 O5       -1.8775     3.5519    -0.3366 O.2    1 <0>      -0.4700
    6 C6        0.4628     3.0754    -0.1436 C.2    1 <0>      -0.1900
    7 C7        1.0533     4.4249    -0.0172 C.ar   1 <0>       0.0000
    8 C8        1.7216     5.0020    -1.0985 C.ar   1 <0>      -0.0900
    9 C9        2.2699     6.2618    -0.9740 C.ar   1 <0>      -0.1200
   10 C10       2.1594     6.9537     0.2192 C.ar   1 <0>      -0.1000
   11 C11       1.4989     6.3884     1.2958 C.ar   1 <0>      -0.1100
   12 C12       0.9400     5.1311     1.1835 C.ar   1 <0>      -0.0100
   13 Cl13      0.1117     4.4231     2.5349 Cl     1 <0>      -0.0600
   14 C14       1.1358     1.8813    -0.1370 C.2    1 <0>       0.1900
   15 N15       2.4968     1.7003    -0.0174 N.pl3  1 <0>      -0.6300
   16 C16       3.0090     0.9210     1.0226 C.ar   1 <0>       0.0300
   17 C17       2.1635     0.4499     2.0197 C.ar   1 <0>      -0.0700
   18 C18       2.6708    -0.3212     3.0478 C.ar   1 <0>      -0.1400
   19 Cl19      1.6147    -0.9098     4.2936 Cl     1 <0>      -0.0900
   20 C20       4.0246    -0.6259     3.0845 C.ar   1 <0>       0.2800
   21 O21       4.5231    -1.3854     4.0967 O.3    1 <0>      -0.6700
   22 C22       4.8698    -0.1561     2.0886 C.ar   1 <0>      -0.1400
   23 Cl23      6.5624    -0.5387     2.1351 Cl     1 <0>      -0.0900
   24 C24       4.3633     0.6115     1.0575 C.ar   1 <0>      -0.0800
   25 H25      -1.9390     0.9418    -0.4796 H      1 <0>       0.4300
   26 H26       1.8095     4.4632    -2.0304 H      1 <0>       0.1300
   27 H27       2.7871     6.7090    -1.8100 H      1 <0>       0.1300
   28 H28       2.5910     7.9394     0.3108 H      1 <0>       0.1300
   29 H29       1.4167     6.9338     2.2243 H      1 <0>       0.1400
   30 H30       3.0991     2.1140    -0.6553 H      1 <0>       0.4100
   31 H31       1.1102     0.6869     1.9913 H      1 <0>       0.1000
   32 H32       5.0210     0.9770     0.2827 H      1 <0>       0.1100
@<TRIPOS>BOND
   1    1    2 2
   2    2   14 1
   3    2    3 am
   4    3    4 am
   5    3   25 1
   6    4    5 2
   7    4    6 1
   8    6    7 1
   9    6   14 2
  10    7   12 ar
  11    7    8 ar
  12    8    9 ar
  13    8   26 1
  14    9   10 ar
  15    9   27 1
  16   10   11 ar
  17   10   28 1
  18   11   12 ar
  19   11   29 1
  20   12   13 1
  21   14   15 1
  22   15   16 1
  23   15   30 1
  24   16   24 ar
  25   16   17 ar
  26   17   18 ar
  27   17   31 1
  28   18   19 1
  29   18   20 ar
  30   20   21 1
  31   20   22 ar
  32   22   23 1
  33   22   24 ar
  34   24   32 1
