@<TRIPOS>MOLECULE
ZINC000049709664
41    43    1     0     0
SMALL
USER_CHARGES
@<TRIPOS>ATOM
1      O1      0.0741    0.1573    1.3328 O.2      1 ZINC000049709664   -0.4300
2      C2      0.0468    1.3167    0.9659 C.2      1 ZINC000049709664    0.5200
3      N3     -1.0152    1.9775    0.4911 N.am     1 ZINC000049709664   -0.6800
4      C4     -0.8873    3.2436    0.1309 C.2      1 ZINC000049709664    0.5700
5      O5     -1.8164    3.8963   -0.3072 O.2      1 ZINC000049709664   -0.4700
6      C6      0.4588    3.8024    0.2997 C.2      1 ZINC000049709664   -0.2400
7      C7      0.8820    5.0608    0.0174 C.2      1 ZINC000049709664    0.0900
8      C8      2.3108    5.3889    0.0931 C.ar     1 ZINC000049709664   -0.1200
9      C9      3.2699    4.3703    0.0614 C.ar     1 ZINC000049709664   -0.0300
10     C10     4.6100    4.6867    0.1330 C.ar     1 ZINC000049709664   -0.1300
11     Br11    5.9057    3.3101    0.0902 Br       1 ZINC000049709664   -0.0300
12     C12     5.0117    6.0092    0.2358 C.ar     1 ZINC000049709664   -0.0200
13     C13     4.0750    7.0250    0.2681 C.ar     1 ZINC000049709664   -0.2100
14     C14     2.7243    6.7279    0.1920 C.ar     1 ZINC000049709664    0.1900
15     O15     1.8041    7.7251    0.2232 O.3      1 ZINC000049709664   -0.3000
16     C16     2.2987    9.0610    0.3361 C.3      1 ZINC000049709664    0.1000
17     C17     1.1409   10.0254    0.3552 C.ar     1 ZINC000049709664   -0.1000
18     C18     0.6553   10.5460   -0.8297 C.ar     1 ZINC000049709664   -0.0100
19     C19    -0.4068   11.4307   -0.8122 C.ar     1 ZINC000049709664   -0.1900
20     C20    -0.9358   11.9986   -2.1039 C.3      1 ZINC000049709664    0.5100
21     F21    -1.9423   11.1645   -2.6024 F        1 ZINC000049709664   -0.1700
22     F22    -1.4600   13.2748   -1.8722 F        1 ZINC000049709664   -0.1700
23     F23     0.1037   12.0836   -3.0363 F        1 ZINC000049709664   -0.1700
24     C24    -0.9838   11.7940    0.3903 C.ar     1 ZINC000049709664   -0.0100
25     C25    -0.4985   11.2731    1.5752 C.ar     1 ZINC000049709664   -0.1900
26     C26    -1.1273   11.6696    2.8861 C.3      1 ZINC000049709664    0.5100
27     F27    -2.1743   12.5666    2.6487 F        1 ZINC000049709664   -0.1700
28     F28    -1.6255   10.5306    3.5277 F        1 ZINC000049709664   -0.1700
29     F29    -0.1658   12.2797    3.6988 F        1 ZINC000049709664   -0.1700
30     C30     0.5608   10.3851    1.5573 C.ar     1 ZINC000049709664   -0.0100
31     S31     1.4044    2.4559    0.9653 S.3      1 ZINC000049709664    0.0000
32     H32    -1.8727    1.5311    0.4113 H        1 ZINC000049709664    0.4300
33     H33     0.1675    5.8206   -0.2628 H        1 ZINC000049709664    0.1700
34     H34     2.9611    3.3385   -0.0186 H        1 ZINC000049709664    0.1600
35     H35     6.0636    6.2475    0.2913 H        1 ZINC000049709664    0.1500
36     H36     4.3971    8.0527    0.3487 H        1 ZINC000049709664    0.1500
37     H37     2.8696    9.1603    1.2593 H        1 ZINC000049709664    0.0900
38     H38     2.9426    9.2832   -0.5149 H        1 ZINC000049709664    0.0900
39     H39     1.1059   10.2619   -1.7692 H        1 ZINC000049709664    0.1500
40     H40    -1.8136   12.4852    0.4040 H        1 ZINC000049709664    0.1600
41     H41     0.9399    9.9781    2.4830 H        1 ZINC000049709664    0.1500
@<TRIPOS>BOND
1     1     2     2
2     2     31    1
3     2     3     am
4     3     4     am
5     3     32    1
6     4     5     2
7     4     6     1
8     6     7     2
9     6     31    1
10    7     8     1
11    7     33    1
12    8     14    ar
13    8     9     ar
14    9     10    ar
15    9     34    1
16    10    11    1
17    10    12    ar
18    12    13    ar
19    12    35    1
20    13    14    ar
21    13    36    1
22    14    15    1
23    15    16    1
24    16    17    1
25    16    37    1
26    16    38    1
27    17    30    ar
28    17    18    ar
29    18    19    ar
30    18    39    1
31    19    20    1
32    19    24    ar
33    20    21    1
34    20    22    1
35    20    23    1
36    24    25    ar
37    24    40    1
38    25    26    1
39    25    30    ar
40    26    27    1
41    26    28    1
42    26    29    1
43    30    41    1
@<TRIPOS>SUBSTRUCTURE
1   ZINC000049709664 1     RESIDUE    1   A     ZIN   1
