@<TRIPOS>MOLECULE
ZINC000195503328
76    81    1     0     0
SMALL
USER_CHARGES
@<TRIPOS>ATOM
1      O1     -0.7084   -0.5295   -0.0818 O.2      1 ZINC000195503328   -0.4700
2      C2     -0.8066    0.6846   -0.0234 C.2      1 ZINC000195503328    0.4300
3      C3     -2.1092    1.3718   -0.0811 C.ar     1 ZINC000195503328   -0.1700
4      C4     -3.2253    0.7678   -0.6573 C.ar     1 ZINC000195503328   -0.0600
5      C5     -4.4235    1.4472   -0.6928 C.ar     1 ZINC000195503328   -0.1500
6      C6     -4.5250    2.7258   -0.1601 C.ar     1 ZINC000195503328   -0.0900
7      C7     -3.4364    3.3401    0.4148 C.ar     1 ZINC000195503328   -0.1200
8      C8     -2.2069    2.6720    0.4655 C.ar     1 ZINC000195503328    0.0700
9      C9     -1.0395    3.3016    1.0766 C.2      1 ZINC000195503328   -0.6800
10     S10    -1.2497    4.7617    2.0403 S.o2     1 ZINC000195503328    2.7000
11     O11    -2.3172    4.4875    2.9897 O.co2    1 ZINC000195503328   -1.0600
12     O12     0.0201    5.0126    2.7041 O.co2    1 ZINC000195503328   -1.0600
13     O13    -1.6023    5.8276    1.1153 O.co2    1 ZINC000195503328   -1.0600
14     C14     0.1984    2.7852    0.9171 C.2      1 ZINC000195503328    0.0800
15     C15     0.3753    1.5674    0.1166 C.2      1 ZINC000195503328   -0.0900
16     N16     1.5311    1.2746   -0.4596 N.2      1 ZINC000195503328   -0.1000
17     N17     1.6494    0.1951   -1.1559 N.pl3    1 ZINC000195503328   -0.4600
18     C18     2.8637   -0.1127   -1.7614 C.ar     1 ZINC000195503328    0.1100
19     C19     3.9517    0.7428   -1.6100 C.ar     1 ZINC000195503328   -0.1000
20     C20     5.1546    0.4416   -2.2082 C.ar     1 ZINC000195503328   -0.1100
21     C21     5.2830   -0.7256   -2.9682 C.ar     1 ZINC000195503328    0.0300
22     C22     6.5678   -1.0512   -3.6088 C.2      1 ZINC000195503328   -0.1100
23     C23     7.5120   -0.1032   -3.7419 C.2      1 ZINC000195503328   -0.1100
24     C24     8.7968   -0.4288   -4.3825 C.ar     1 ZINC000195503328    0.0300
25     C25     8.9240   -1.5938   -5.1461 C.ar     1 ZINC000195503328   -0.1100
26     C26    10.1271   -1.8952   -5.7438 C.ar     1 ZINC000195503328   -0.1000
27     C27    11.2163   -1.0420   -5.5889 C.ar     1 ZINC000195503328    0.1100
28     N28    12.4305   -1.3495   -6.1947 N.pl3    1 ZINC000195503328   -0.4600
29     N29    12.5461   -2.4241   -6.8990 N.2      1 ZINC000195503328   -0.1000
30     C30    13.7017   -2.7168   -7.4756 C.2      1 ZINC000195503328   -0.0900
31     C31    13.8741   -3.9282   -8.2915 C.2      1 ZINC000195503328    0.0800
32     C32    14.8448   -3.9642   -9.2301 C.2      1 ZINC000195503328   -0.6800
33     S33    15.0469   -5.4148  -10.2098 S.o2     1 ZINC000195503328    2.7000
34     O34    16.4580   -5.7640  -10.1559 O.co2    1 ZINC000195503328   -1.0600
35     O35    14.2070   -6.4429   -9.6152 O.co2    1 ZINC000195503328   -1.0600
36     O36    14.6201   -5.0733  -11.5578 O.co2    1 ZINC000195503328   -1.0600
37     C37    15.7295   -2.8230   -9.4483 C.ar     1 ZINC000195503328    0.0700
38     C38    16.5525   -2.7613  -10.5795 C.ar     1 ZINC000195503328   -0.1200
39     C39    17.3810   -1.6784  -10.7638 C.ar     1 ZINC000195503328   -0.0900
40     C40    17.4144   -0.6409   -9.8411 C.ar     1 ZINC000195503328   -0.1500
41     C41    16.6140   -0.6758   -8.7200 C.ar     1 ZINC000195503328   -0.0600
42     C42    15.7660   -1.7625   -8.5142 C.ar     1 ZINC000195503328   -0.1700
43     C43    14.8864   -1.8375   -7.3373 C.2      1 ZINC000195503328    0.4300
44     O44    15.1175   -1.2191   -6.3120 O.2      1 ZINC000195503328   -0.4700
45     C45    11.0932    0.1188   -4.8293 C.ar     1 ZINC000195503328   -0.0600
46     C46     9.8919    0.4293   -4.2338 C.ar     1 ZINC000195503328   -0.6300
47     S47     9.7373    1.8982   -3.2730 S.o2     1 ZINC000195503328    2.7000
48     O48     9.1694    2.9131   -4.1468 O.co2    1 ZINC000195503328   -1.0600
49     O49     8.8559    1.5807   -2.1602 O.co2    1 ZINC000195503328   -1.0500
50     O50    11.0761    2.2498   -2.8259 O.co2    1 ZINC000195503328   -1.0700
51     C51     4.1877   -1.5832   -3.1177 C.ar     1 ZINC000195503328   -0.6300
52     S52     4.3440   -3.0551   -4.0736 S.o2     1 ZINC000195503328    2.7000
53     O53     4.9207   -4.0641   -3.1987 O.co2    1 ZINC000195503328   -1.0600
54     O54     3.0045   -3.4144   -4.5126 O.co2    1 ZINC000195503328   -1.0700
55     O55     5.2184   -2.7381   -5.1920 O.co2    1 ZINC000195503328   -1.0500
56     C56     2.9896   -1.2785   -2.5127 C.ar     1 ZINC000195503328   -0.0600
57     H57    -3.1513   -0.2260   -1.0735 H        1 ZINC000195503328    0.1300
58     H58    -5.2902    0.9820   -1.1386 H        1 ZINC000195503328    0.1200
59     H59    -5.4715    3.2448   -0.1974 H        1 ZINC000195503328    0.1200
60     H60    -3.5296    4.3348    0.8250 H        1 ZINC000195503328    0.1400
61     H61     1.0508    3.2621    1.3779 H        1 ZINC000195503328    0.1600
62     H62     0.8917   -0.4021   -1.2573 H        1 ZINC000195503328    0.4000
63     H63     3.8518    1.6438   -1.0231 H        1 ZINC000195503328    0.1400
64     H64     5.9980    1.1060   -2.0910 H        1 ZINC000195503328    0.1500
65     H65     6.7520   -2.0515   -3.9719 H        1 ZINC000195503328    0.1500
66     H66     7.3278    0.8971   -3.3788 H        1 ZINC000195503328    0.1500
67     H67     8.0796   -2.2563   -5.2664 H        1 ZINC000195503328    0.1500
68     H68    10.2261   -2.7948   -6.3332 H        1 ZINC000195503328    0.1400
69     H69    13.1901   -0.7559   -6.0876 H        1 ZINC000195503328    0.4000
70     H70    13.2301   -4.7821   -8.1412 H        1 ZINC000195503328    0.1600
71     H71    16.5366   -3.5609  -11.3052 H        1 ZINC000195503328    0.1400
72     H72    18.0143   -1.6348  -11.6375 H        1 ZINC000195503328    0.1200
73     H73    18.0729    0.1996  -10.0033 H        1 ZINC000195503328    0.1200
74     H74    16.6434    0.1337   -8.0057 H        1 ZINC000195503328    0.1300
75     H75    11.9402    0.7785   -4.7112 H        1 ZINC000195503328    0.1400
76     H76     2.1438   -1.9402   -2.6274 H        1 ZINC000195503328    0.1400
@<TRIPOS>BOND
1     1     2     2
2     2     15    1
3     2     3     1
4     3     8     ar
5     3     4     ar
6     4     5     ar
7     4     57    1
8     5     6     ar
9     5     58    1
10    6     7     ar
11    6     59    1
12    7     8     ar
13    7     60    1
14    8     9     1
15    9     10    1
16    9     14    2
17    10    11    ar
18    10    12    ar
19    10    13    ar
20    14    15    1
21    14    61    1
22    15    16    2
23    16    17    1
24    17    18    1
25    17    62    1
26    18    56    ar
27    18    19    ar
28    19    20    ar
29    19    63    1
30    20    21    ar
31    20    64    1
32    21    22    1
33    21    51    ar
34    22    23    2
35    22    65    1
36    23    24    1
37    23    66    1
38    24    46    ar
39    24    25    ar
40    25    26    ar
41    25    67    1
42    26    27    ar
43    26    68    1
44    27    28    1
45    27    45    ar
46    28    29    1
47    28    69    1
48    29    30    2
49    30    43    1
50    30    31    1
51    31    32    2
52    31    70    1
53    32    33    1
54    32    37    1
55    33    34    ar
56    33    35    ar
57    33    36    ar
58    37    42    ar
59    37    38    ar
60    38    39    ar
61    38    71    1
62    39    40    ar
63    39    72    1
64    40    41    ar
65    40    73    1
66    41    42    ar
67    41    74    1
68    42    43    1
69    43    44    2
70    45    46    ar
71    45    75    1
72    46    47    1
73    47    48    ar
74    47    49    ar
75    47    50    ar
76    51    52    1
77    51    56    ar
78    52    53    ar
79    52    54    ar
80    52    55    ar
81    56    76    1
@<TRIPOS>SUBSTRUCTURE
1   ZINC000195503328 1     RESIDUE    1   A     ZIN   1
