@<TRIPOS>MOLECULE
ZINC000049823344
93    96    1     0     0
SMALL
USER_CHARGES
@<TRIPOS>ATOM
1      C1      0.0116    1.7534    0.4681 C.3      1 ZINC000049823344   -0.1500
2      C2     -0.2203    0.3380    0.9308 C.2      1 ZINC000049823344    0.4500
3      O3      0.7071   -0.3280    1.3259 O.2      1 ZINC000049823344   -0.5000
4      O4     -1.4572   -0.1827    0.9040 O.3      1 ZINC000049823344   -0.3400
5      C5     -1.6062   -1.5517    1.3644 C.3      1 ZINC000049823344    0.1000
6      H6     -0.6874   -2.1031    1.1649 H        1 ZINC000049823344    0.1000
7      C7     -1.8845   -1.5548    2.8678 C.3      1 ZINC000049823344    0.0700
8      H8     -2.0008   -2.5816    3.2145 H        1 ZINC000049823344    0.1000
9      O9     -0.7769   -0.9289    3.5675 O.3      1 ZINC000049823344   -0.3400
10     C10    -0.5226   -1.3583    4.8136 C.2      1 ZINC000049823344    0.4600
11     C11     0.6116   -0.7552    5.6017 C.3      1 ZINC000049823344   -0.1500
12     O12    -1.2030   -2.2283    5.3034 O.2      1 ZINC000049823344   -0.5100
13     C13    -3.1717   -0.7734    3.1427 C.3      1 ZINC000049823344   -0.1300
14     C14    -4.3346   -1.4487    2.4152 C.3      1 ZINC000049823344   -0.1100
15     C15    -4.0657   -1.4617    0.9078 C.3      1 ZINC000049823344   -0.0300
16     C16    -3.9332   -0.0219    0.4076 C.3      1 ZINC000049823344   -0.1600
17     C17    -5.2408   -2.1116    0.1953 C.3      1 ZINC000049823344   -0.0400
18     H18    -5.5610   -2.9605    0.7995 H        1 ZINC000049823344    0.0900
19     C19    -4.8822   -2.6371   -1.1700 C.2      1 ZINC000049823344   -0.0700
20     C20    -3.6803   -2.6435   -1.6554 C.2      1 ZINC000049823344   -0.1800
21     C21    -2.4939   -2.1090   -0.9065 C.3      1 ZINC000049823344    0.1300
22     H22    -2.3270   -1.0682   -1.1839 H        1 ZINC000049823344    0.1100
23     O23    -1.3178   -2.8935   -1.2376 O.3      1 ZINC000049823344   -0.3500
24     C24    -0.5852   -2.4815   -2.2842 C.2      1 ZINC000049823344    0.4600
25     C25     0.6495   -3.2458   -2.6873 C.3      1 ZINC000049823344   -0.1500
26     O26    -0.9158   -1.4979   -2.9032 O.2      1 ZINC000049823344   -0.5100
27     C27    -2.7692   -2.2148    0.6215 C.3      1 ZINC000049823344   -0.0600
28     H28    -2.8428   -3.2633    0.9099 H        1 ZINC000049823344    0.1100
29     C29    -6.0325   -3.1708   -1.9791 C.3      1 ZINC000049823344   -0.0600
30     H30    -6.4887   -4.0292   -1.4859 H        1 ZINC000049823344    0.0900
31     C31    -5.7442   -3.4758   -3.4511 C.3      1 ZINC000049823344   -0.1200
32     C32    -7.1513   -3.3737   -4.1048 C.3      1 ZINC000049823344   -0.1100
33     C33    -7.9940   -2.4534   -3.1833 C.3      1 ZINC000049823344   -0.0600
34     H34    -8.8156   -3.0140   -2.7373 H        1 ZINC000049823344    0.0700
35     C35    -8.5336   -1.2598   -3.9739 C.3      1 ZINC000049823344   -0.1100
36     H36    -7.7054   -0.7350   -4.4501 H        1 ZINC000049823344    0.0800
37     C37    -9.2628   -0.3069   -3.0246 C.3      1 ZINC000049823344   -0.1600
38     C38    -9.5067   -1.7557   -5.0455 C.3      1 ZINC000049823344    0.1100
39     H39   -10.2793   -2.3674   -4.5796 H        1 ZINC000049823344    0.0900
40     O40    -8.7968   -2.5370   -6.0086 O.3      1 ZINC000049823344   -0.5500
41     C41   -10.1553   -0.5564   -5.7397 C.3      1 ZINC000049823344   -0.1600
42     C42   -11.2182   -1.0500   -6.7232 C.3      1 ZINC000049823344   -0.1100
43     C43   -11.8668    0.1493   -7.4175 C.3      1 ZINC000049823344   -0.1000
44     C44   -10.8235    0.8673   -8.2758 C.3      1 ZINC000049823344   -0.1500
45     C45   -13.0133   -0.3352   -8.3073 C.3      1 ZINC000049823344   -0.1500
46     C46    -7.0374   -1.9893   -2.0907 C.3      1 ZINC000049823344   -0.0500
47     C47    -6.2766   -0.7547   -2.5784 C.3      1 ZINC000049823344   -0.1600
48     C48    -7.5974   -1.7029   -0.7173 C.3      1 ZINC000049823344   -0.1400
49     C49    -6.4150   -1.1392    0.1142 C.3      1 ZINC000049823344    0.1100
50     H50    -6.0739   -0.2083   -0.3387 H        1 ZINC000049823344    0.0700
51     O51    -6.8657   -0.8725    1.4438 O.3      1 ZINC000049823344   -0.5600
52     H52     1.0696    1.9977    0.5624 H        1 ZINC000049823344    0.1000
53     H53    -0.2919    1.8491   -0.5744 H        1 ZINC000049823344    0.1000
54     H54    -0.5753    2.4370    1.0816 H        1 ZINC000049823344    0.1000
55     H55     1.1068    0.0072    5.0004 H        1 ZINC000049823344    0.0900
56     H56     0.2205   -0.3022    6.5127 H        1 ZINC000049823344    0.1000
57     H57     1.3278   -1.5345    5.8620 H        1 ZINC000049823344    0.1100
58     H58    -3.3695   -0.7629    4.2146 H        1 ZINC000049823344    0.0700
59     H59    -3.0610    0.2492    2.7820 H        1 ZINC000049823344    0.0800
60     H60    -4.4404   -2.4727    2.7733 H        1 ZINC000049823344    0.0600
61     H61    -5.2547   -0.8992    2.6144 H        1 ZINC000049823344    0.1100
62     H62    -3.1888    0.5035    1.0060 H        1 ZINC000049823344    0.0900
63     H63    -3.6217   -0.0273   -0.6369 H        1 ZINC000049823344    0.0600
64     H64    -4.8945    0.4839    0.4976 H        1 ZINC000049823344    0.0600
65     H65    -3.5252   -3.0521   -2.6430 H        1 ZINC000049823344    0.1200
66     H66     0.7857   -4.0952   -2.0179 H        1 ZINC000049823344    0.0900
67     H67     0.5372   -3.6040   -3.7106 H        1 ZINC000049823344    0.1100
68     H68     1.5186   -2.5910   -2.6248 H        1 ZINC000049823344    0.1100
69     H69    -5.0671   -2.7337   -3.8740 H        1 ZINC000049823344    0.0700
70     H70    -5.3375   -4.4807   -3.5649 H        1 ZINC000049823344    0.0600
71     H71    -7.0711   -2.9351   -5.0995 H        1 ZINC000049823344    0.0800
72     H72    -7.6082   -4.3614   -4.1663 H        1 ZINC000049823344    0.0600
73     H73    -8.5696    0.0464   -2.2612 H        1 ZINC000049823344    0.0700
74     H74    -9.6472    0.5435   -3.5878 H        1 ZINC000049823344    0.0600
75     H75   -10.0910   -0.8317   -2.5484 H        1 ZINC000049823344    0.0600
76     H76    -8.0924   -2.0555   -6.4637 H        1 ZINC000049823344    0.3700
77     H77   -10.6215    0.0869   -4.9935 H        1 ZINC000049823344    0.0700
78     H78    -9.3938    0.0063   -6.2798 H        1 ZINC000049823344    0.0700
79     H79   -10.7520   -1.6933   -7.4694 H        1 ZINC000049823344    0.0700
80     H80   -11.9797   -1.6127   -6.1831 H        1 ZINC000049823344    0.0600
81     H81   -12.2555    0.8373   -6.6666 H        1 ZINC000049823344    0.0700
82     H82   -10.4349    0.1793   -9.0266 H        1 ZINC000049823344    0.0500
83     H83   -11.2855    1.7217   -8.7704 H        1 ZINC000049823344    0.0500
84     H84   -10.0067    1.2125   -7.6418 H        1 ZINC000049823344    0.0500
85     H85   -13.7566   -0.8468   -7.6958 H        1 ZINC000049823344    0.0500
86     H86   -13.4754    0.5192   -8.8019 H        1 ZINC000049823344    0.0500
87     H87   -12.6247   -1.0232   -9.0581 H        1 ZINC000049823344    0.0500
88     H88    -6.9572    0.0952   -2.6283 H        1 ZINC000049823344    0.0600
89     H89    -5.4656   -0.5306   -1.8854 H        1 ZINC000049823344    0.0600
90     H90    -5.8650   -0.9493   -3.5687 H        1 ZINC000049823344    0.0600
91     H91    -8.3993   -0.9682   -0.7902 H        1 ZINC000049823344    0.0800
92     H92    -7.9764   -2.6231   -0.2727 H        1 ZINC000049823344    0.0700
93     H93    -7.5865   -0.2298    1.4932 H        1 ZINC000049823344    0.3800
@<TRIPOS>BOND
1     1     2     1
2     1     52    1
3     1     53    1
4     1     54    1
5     2     3     2
6     2     4     1
7     4     5     1
8     5     6     1
9     5     27    1
10    5     7     1
11    7     8     1
12    7     9     1
13    7     13    1
14    9     10    1
15    10    11    1
16    10    12    2
17    11    55    1
18    11    56    1
19    11    57    1
20    13    14    1
21    13    58    1
22    13    59    1
23    14    15    1
24    14    60    1
25    14    61    1
26    15    27    1
27    15    16    1
28    15    17    1
29    16    62    1
30    16    63    1
31    16    64    1
32    17    18    1
33    17    49    1
34    17    19    1
35    19    20    2
36    19    29    1
37    20    21    1
38    20    65    1
39    21    22    1
40    21    23    1
41    21    27    1
42    23    24    1
43    24    25    1
44    24    26    2
45    25    66    1
46    25    67    1
47    25    68    1
48    27    28    1
49    29    30    1
50    29    46    1
51    29    31    1
52    31    32    1
53    31    69    1
54    31    70    1
55    32    33    1
56    32    71    1
57    32    72    1
58    33    34    1
59    33    35    1
60    33    46    1
61    35    36    1
62    35    37    1
63    35    38    1
64    37    73    1
65    37    74    1
66    37    75    1
67    38    39    1
68    38    40    1
69    38    41    1
70    40    76    1
71    41    42    1
72    41    77    1
73    41    78    1
74    42    43    1
75    42    79    1
76    42    80    1
77    43    44    1
78    43    45    1
79    43    81    1
80    44    82    1
81    44    83    1
82    44    84    1
83    45    85    1
84    45    86    1
85    45    87    1
86    46    47    1
87    46    48    1
88    47    88    1
89    47    89    1
90    47    90    1
91    48    49    1
92    48    91    1
93    48    92    1
94    49    50    1
95    49    51    1
96    51    93    1
@<TRIPOS>SUBSTRUCTURE
1   ZINC000049823344 1     RESIDUE    1   A     ZIN   1
