@<TRIPOS>MOLECULE
ZINC000001493890
  37   40    0    0    0
SMALL
USER_CHARGES
NO_NAME
@<TRIPOS>ATOM
    1 C1       -0.0178     1.4608     0.0101 C.3    1 <0>       0.0700
    2 N2        0.0021    -0.0041     0.0020 N.pl3  1 <0>      -0.4700
    3 C3        0.0078    -0.7727    -1.1169 C.2    1 <0>       0.1100
    4 C4        0.0278    -2.0944    -0.7674 C.2    1 <0>      -0.1600
    5 C5        0.0402    -3.2453    -1.6802 C.2    1 <0>       0.0100
    6 C6        1.1164    -3.7097    -2.4247 C.2    1 <0>      -0.1000
    7 C7        2.4806    -3.1453    -2.4587 C.ar   1 <0>      -0.0200
    8 C8        3.3549    -3.3581    -1.3901 C.ar   1 <0>      -0.0600
    9 C9        4.6275    -2.8283    -1.4280 C.ar   1 <0>      -0.1000
   10 C10       5.0402    -2.0858    -2.5222 C.ar   1 <0>      -0.0100
   11 Cl11      6.6439    -1.4223    -2.5607 Cl     1 <0>      -0.0500
   12 C12       4.1794    -1.8708    -3.5858 C.ar   1 <0>      -0.1000
   13 C13       2.9052    -2.4000    -3.5636 C.ar   1 <0>       0.0000
   14 Cl14      1.8274    -2.1303    -4.8975 Cl     1 <0>      -0.0500
   15 C15       0.6235    -4.8799    -3.1740 C.2    1 <0>       0.5600
   16 O16       1.2804    -5.5582    -3.9390 O.2    1 <0>      -0.4400
   17 N17      -0.6712    -5.0735    -2.8715 N.am   1 <0>      -0.6900
   18 C18      -1.0924    -4.1515    -1.9890 C.2    1 <0>       0.5500
   19 O19      -2.2129    -4.0695    -1.5286 O.2    1 <0>      -0.4400
   20 C20       0.0348    -2.1366     0.7062 C.ar   1 <0>      -0.0700
   21 C21       0.0532    -3.1664     1.6433 C.ar   1 <0>      -0.0800
   22 C22       0.0549    -2.8650     2.9883 C.ar   1 <0>      -0.1300
   23 C23       0.0379    -1.5437     3.4093 C.ar   1 <0>      -0.1000
   24 C24       0.0192    -0.5145     2.4923 C.ar   1 <0>      -0.1200
   25 C25       0.0236    -0.7978     1.1309 C.ar   1 <0>       0.0900
   26 H26       1.0048     1.8381     0.0023 H      1 <0>       0.0800
   27 H27      -0.5450     1.8219    -0.8730 H      1 <0>       0.0900
   28 H28      -0.5280     1.8123     0.9069 H      1 <0>       0.0900
   29 H29      -0.0022    -0.3972    -2.1295 H      1 <0>       0.1700
   30 H30       3.0346    -3.9361    -0.5359 H      1 <0>       0.1500
   31 H31       5.3040    -2.9924    -0.6023 H      1 <0>       0.1500
   32 H32       4.5075    -1.2913    -4.4360 H      1 <0>       0.1500
   33 H33      -1.2239    -5.7822    -3.2365 H      1 <0>       0.4300
   34 H34       0.0658    -4.1961     1.3179 H      1 <0>       0.1200
   35 H35       0.0692    -3.6614     3.7176 H      1 <0>       0.1300
   36 H36       0.0391    -1.3189     4.4656 H      1 <0>       0.1300
   37 H37       0.0054     0.5109     2.8310 H      1 <0>       0.1200
@<TRIPOS>BOND
   1    1    2 1
   2    1   26 1
   3    1   27 1
   4    1   28 1
   5    2   25 1
   6    2    3 1
   7    3    4 2
   8    3   29 1
   9    4    5 1
  10    4   20 1
  11    5   18 1
  12    5    6 2
  13    6    7 1
  14    6   15 1
  15    7   13 ar
  16    7    8 ar
  17    8    9 ar
  18    8   30 1
  19    9   10 ar
  20    9   31 1
  21   10   11 1
  22   10   12 ar
  23   12   13 ar
  24   12   32 1
  25   13   14 1
  26   15   16 2
  27   15   17 am
  28   17   18 am
  29   17   33 1
  30   18   19 2
  31   20   25 ar
  32   20   21 ar
  33   21   22 ar
  34   21   34 1
  35   22   23 ar
  36   22   35 1
  37   23   24 ar
  38   23   36 1
  39   24   25 ar
  40   24   37 1
