@<TRIPOS>MOLECULE
ZINC000575440732
50    51    1     0     0
SMALL
USER_CHARGES
@<TRIPOS>ATOM
1      C1     -0.0187    1.5258    0.0104 C.3      1 ZINC000575440732   -0.1400
2      C2      0.0021   -0.0041    0.0020 C.3      1 ZINC000575440732   -0.1000
3      C3      0.7182   -0.4975   -1.2568 C.3      1 ZINC000575440732   -0.1500
4      H4      1.7103   -0.0491   -1.3098 H        1 ZINC000575440732    0.0600
5      C5      0.8493   -2.0210   -1.2049 C.3      1 ZINC000575440732   -0.0700
6      C6      1.6611   -2.4957   -2.3824 C.ar     1 ZINC000575440732   -0.0300
7      C7      1.0289   -2.8157   -3.5708 C.ar     1 ZINC000575440732   -0.1000
8      C8      1.7662   -3.2513   -4.6524 C.ar     1 ZINC000575440732   -0.0500
9      C9      3.1530   -3.3685   -4.5461 C.ar     1 ZINC000575440732   -0.1500
10     C10     3.9495   -3.8342   -5.7013 C.2      1 ZINC000575440732    0.5700
11     O11     3.3968   -4.1160   -6.7465 O.2      1 ZINC000575440732   -0.5400
12     N12     5.2884   -3.9463   -5.5954 N.am     1 ZINC000575440732   -0.7300
13     C13     6.0777   -4.4077   -6.7401 C.3      1 ZINC000575440732    0.1500
14     C14     7.5362   -4.4440   -6.3627 C.ar     1 ZINC000575440732   -0.0900
15     C15     8.3728   -3.4105   -6.7411 C.ar     1 ZINC000575440732   -0.0600
16     C16     9.7103   -3.4412   -6.3959 C.ar     1 ZINC000575440732   -0.1800
17     C17    10.2135   -4.5101   -5.6692 C.ar     1 ZINC000575440732    0.1300
18     O18    11.5286   -4.5424   -5.3281 O.3      1 ZINC000575440732   -0.3100
19     C19    12.3357   -3.4416   -5.7511 C.3      1 ZINC000575440732    0.0200
20     C20     9.3717   -5.5462   -5.2906 C.ar     1 ZINC000575440732   -0.1100
21     C21     8.0343   -5.5083   -5.6336 C.ar     1 ZINC000575440732   -0.1300
22     C22     7.1194   -6.6330   -5.2223 C.3      1 ZINC000575440732    0.5100
23     F23     7.8489   -7.5905   -4.5094 F        1 ZINC000575440732   -0.1800
24     F24     6.0956   -6.1290   -4.4130 F        1 ZINC000575440732   -0.1600
25     F25     6.5645   -7.2234   -6.3628 F        1 ZINC000575440732   -0.1700
26     C26     3.7846   -3.0436   -3.3445 C.ar     1 ZINC000575440732   -0.0900
27     C27     3.0361   -2.6042   -2.2721 C.ar     1 ZINC000575440732   -0.1300
28     C28    -0.0771   -0.1029   -2.4745 C.2      1 ZINC000575440732    0.5100
29     O29     0.4235    0.6153   -3.3231 O.co2    1 ZINC000575440732   -0.7000
30     O30    -1.2211   -0.5017   -2.6110 O.co2    1 ZINC000575440732   -0.7000
31     H31     1.0039    1.9031    0.0027 H        1 ZINC000575440732    0.0500
32     H32    -0.5459    1.8868   -0.8726 H        1 ZINC000575440732    0.0600
33     H33    -0.5289    1.8773    0.9072 H        1 ZINC000575440732    0.0400
34     H34     0.5293   -0.3651    0.8851 H        1 ZINC000575440732    0.0400
35     H35    -1.0205   -0.3814    0.0098 H        1 ZINC000575440732    0.0600
36     H36     1.3468   -2.3116   -0.2797 H        1 ZINC000575440732    0.0600
37     H37    -0.1422   -2.4724   -1.2416 H        1 ZINC000575440732    0.0800
38     H38    -0.0442   -2.7246   -3.6518 H        1 ZINC000575440732    0.1400
39     H39     1.2715   -3.5014   -5.5793 H        1 ZINC000575440732    0.1300
40     H40     5.7295   -3.7214   -4.7612 H        1 ZINC000575440732    0.4000
41     H41     5.7516   -5.4075   -7.0268 H        1 ZINC000575440732    0.0900
42     H42     5.9360   -3.7251   -7.5779 H        1 ZINC000575440732    0.0900
43     H43     7.9806   -2.5786   -7.3072 H        1 ZINC000575440732    0.1400
44     H44    10.3635   -2.6337   -6.6920 H        1 ZINC000575440732    0.1400
45     H45    12.3168   -3.3741   -6.8388 H        1 ZINC000575440732    0.0600
46     H46    11.9446   -2.5187   -5.3229 H        1 ZINC000575440732    0.0600
47     H47    13.3613   -3.5925   -5.4142 H        1 ZINC000575440732    0.1000
48     H48     9.7612   -6.3797   -4.7250 H        1 ZINC000575440732    0.1500
49     H49     4.8572   -3.1325   -3.2556 H        1 ZINC000575440732    0.1200
50     H50     3.5235   -2.3522   -1.3420 H        1 ZINC000575440732    0.1200
@<TRIPOS>BOND
1     1     2     1
2     1     31    1
3     1     32    1
4     1     33    1
5     2     3     1
6     2     34    1
7     2     35    1
8     3     4     1
9     3     5     1
10    3     28    1
11    5     6     1
12    5     36    1
13    5     37    1
14    6     27    ar
15    6     7     ar
16    7     8     ar
17    7     38    1
18    8     9     ar
19    8     39    1
20    9     10    1
21    9     26    ar
22    10    11    2
23    10    12    am
24    12    13    1
25    12    40    1
26    13    14    1
27    13    41    1
28    13    42    1
29    14    21    ar
30    14    15    ar
31    15    16    ar
32    15    43    1
33    16    17    ar
34    16    44    1
35    17    18    1
36    17    20    ar
37    18    19    1
38    19    45    1
39    19    46    1
40    19    47    1
41    20    21    ar
42    20    48    1
43    21    22    1
44    22    23    1
45    22    24    1
46    22    25    1
47    26    27    ar
48    26    49    1
49    27    50    1
50    28    29    ar
51    28    30    ar
@<TRIPOS>SUBSTRUCTURE
1   ZINC000575440732 1     RESIDUE    1   A     ZIN   1
