@<TRIPOS>MOLECULE
ZINC000008605140
51    54    1     0     0
SMALL
USER_CHARGES
@<TRIPOS>ATOM
1      C1      0.6213   -4.5843    3.7971 C.3      1 ZINC000008605140    0.0400
2      O2      0.4245   -3.9729    2.4949 O.3      1 ZINC000008605140   -0.3500
3      C3      1.0266   -4.5636    1.4446 C.2      1 ZINC000008605140    0.5100
4      O4      1.6977   -5.5621    1.6119 O.2      1 ZINC000008605140   -0.4900
5      C5      0.8706   -3.9969    0.0889 C.ar     1 ZINC000008605140   -0.1200
6      C6      1.4898   -4.6118   -1.0012 C.ar     1 ZINC000008605140   -0.0200
7      C7      1.3439   -4.0805   -2.2743 C.ar     1 ZINC000008605140    0.1300
8      N8      1.9657   -4.6993   -3.3643 N.am     1 ZINC000008605140   -0.6700
9      C9      2.1092   -6.0392   -3.3868 C.2      1 ZINC000008605140    0.5600
10     O10     1.6143   -6.7186   -2.5079 O.2      1 ZINC000008605140   -0.5000
11     C11     2.8664   -6.6814   -4.4771 C.ar     1 ZINC000008605140   -0.1000
12     C12     3.4403   -5.9014   -5.4842 C.ar     1 ZINC000008605140   -0.0900
13     C13     4.1466   -6.5086   -6.4981 C.ar     1 ZINC000008605140   -0.0500
14     C14     4.2913   -7.8928   -6.5255 C.ar     1 ZINC000008605140   -0.1200
15     S15     5.2035   -8.6336   -7.8385 S.3      1 ZINC000008605140    0.0000
16     C16     4.0074   -9.6679   -8.6134 C.ar     1 ZINC000008605140   -0.1000
17     C17     3.6786   -9.4622   -9.9473 C.ar     1 ZINC000008605140   -0.0800
18     C18     2.7464  -10.2724  -10.5638 C.ar     1 ZINC000008605140   -0.0900
19     C19     2.1358  -11.2942   -9.8551 C.ar     1 ZINC000008605140   -0.1000
20     C20     2.4493  -11.5098   -8.5318 C.ar     1 ZINC000008605140   -0.0700
21     C21     3.3907  -10.6952   -7.8879 C.ar     1 ZINC000008605140   -0.0900
22     C22     3.6969  -10.9344   -6.4786 C.2      1 ZINC000008605140    0.5700
23     O23     3.8373  -12.0997   -6.1615 O.2      1 ZINC000008605140   -0.5200
24     N24     3.8405  -10.0650   -5.5138 N.am     1 ZINC000008605140   -0.6400
25     C25     3.7227   -8.6815   -5.5275 C.ar     1 ZINC000008605140    0.1700
26     C26     3.0157   -8.0698   -4.5013 C.ar     1 ZINC000008605140   -0.0700
27     C27     0.5827   -2.9373   -2.4693 C.ar     1 ZINC000008605140   -0.0500
28     C28    -0.0389   -2.3168   -1.3837 C.ar     1 ZINC000008605140   -0.1200
29     C29    -0.8495   -1.0992   -1.5923 C.2      1 ZINC000008605140    0.5100
30     O30    -0.9755   -0.6374   -2.7087 O.2      1 ZINC000008605140   -0.5000
31     O31    -1.4488   -0.5013   -0.5445 O.3      1 ZINC000008605140   -0.3500
32     C32    -2.2294    0.6908   -0.8237 C.3      1 ZINC000008605140    0.0400
33     C33     0.1008   -2.8513   -0.1041 C.ar     1 ZINC000008605140   -0.0200
34     H34     0.2431   -5.6064    3.7795 H        1 ZINC000008605140    0.0700
35     H35     1.6846   -4.5944    4.0367 H        1 ZINC000008605140    0.0700
36     H36     0.0841   -4.0110    4.5526 H        1 ZINC000008605140    0.1100
37     H37     2.0831   -5.5020   -0.8530 H        1 ZINC000008605140    0.1600
38     H38     2.2935   -4.1639   -4.1038 H        1 ZINC000008605140    0.4200
39     H39     3.3300   -4.8271   -5.4677 H        1 ZINC000008605140    0.1400
40     H40     4.5910   -5.9072   -7.2774 H        1 ZINC000008605140    0.1500
41     H41     4.1530   -8.6668  -10.5028 H        1 ZINC000008605140    0.1400
42     H42     2.4922  -10.1090  -11.6007 H        1 ZINC000008605140    0.1400
43     H43     1.4087  -11.9258  -10.3438 H        1 ZINC000008605140    0.1400
44     H44     1.9679  -12.3091   -7.9881 H        1 ZINC000008605140    0.1400
45     H45     4.0636  -10.4469   -4.6505 H        1 ZINC000008605140    0.4200
46     H46     2.5755   -8.6710   -3.7196 H        1 ZINC000008605140    0.1500
47     H47     0.4710   -2.5265   -3.4618 H        1 ZINC000008605140    0.1500
48     H48    -1.5857    1.4512   -1.2660 H        1 ZINC000008605140    0.0700
49     H49    -3.0320    0.4449   -1.5190 H        1 ZINC000008605140    0.0700
50     H50    -2.6563    1.0711    0.1043 H        1 ZINC000008605140    0.1100
51     H51    -0.3789   -2.3734    0.7374 H        1 ZINC000008605140    0.1600
@<TRIPOS>BOND
1     1     2     1
2     1     34    1
3     1     35    1
4     1     36    1
5     2     3     1
6     3     4     2
7     3     5     1
8     5     33    ar
9     5     6     ar
10    6     7     ar
11    6     37    1
12    7     8     1
13    7     27    ar
14    8     9     am
15    8     38    1
16    9     10    2
17    9     11    1
18    11    26    ar
19    11    12    ar
20    12    13    ar
21    12    39    1
22    13    14    ar
23    13    40    1
24    14    25    ar
25    14    15    1
26    15    16    1
27    16    21    ar
28    16    17    ar
29    17    18    ar
30    17    41    1
31    18    19    ar
32    18    42    1
33    19    20    ar
34    19    43    1
35    20    21    ar
36    20    44    1
37    21    22    1
38    22    23    2
39    22    24    am
40    24    25    1
41    24    45    1
42    25    26    ar
43    26    46    1
44    27    28    ar
45    27    47    1
46    28    29    1
47    28    33    ar
48    29    30    2
49    29    31    1
50    31    32    1
51    32    48    1
52    32    49    1
53    32    50    1
54    33    51    1
@<TRIPOS>SUBSTRUCTURE
1   ZINC000008605140 1     RESIDUE    1   A     ZIN   1
