@<TRIPOS>MOLECULE
ZINC000012859479
  48   51    0    0    0
SMALL
USER_CHARGES
NO_NAME
@<TRIPOS>ATOM
    1 C1       -3.2640     1.5082    -3.1508 C.3    1 <0>      -0.1800
    2 C2       -3.2570     0.0013    -3.1677 C.2    1 <0>       0.5100
    3 O3       -4.1527    -0.6153    -2.6306 O.2    1 <0>      -0.5400
    4 N4       -2.2555    -0.6611    -3.7797 N.am   1 <0>      -0.6200
    5 C5       -1.1604     0.0728    -4.4293 C.3    1 <0>       0.0900
    6 C6        0.1709    -0.4137    -3.8436 C.3    1 <0>       0.1000
    7 N7        0.1878    -1.8829    -3.8727 N.am   1 <0>      -0.6000
    8 C8        1.1898    -2.5454    -4.4839 C.2    1 <0>       0.5700
    9 O9        2.0336    -1.9309    -5.1066 O.2    1 <0>      -0.5100
   10 C10       1.2627    -4.0201    -4.3969 C.ar   1 <0>      -0.0600
   11 C11       1.3549    -4.8494    -5.5994 C.ar   1 <0>      -0.0700
   12 C12       1.3785    -4.2821    -6.8778 C.ar   1 <0>      -0.0900
   13 C13       1.4656    -5.0908    -7.9724 C.ar   1 <0>      -0.1000
   14 C14       1.5309    -6.4753    -7.8336 C.ar   1 <0>      -0.1000
   15 C15       1.5099    -7.0600    -6.6046 C.ar   1 <0>      -0.0900
   16 C16       1.4216    -6.2578    -5.4517 C.ar   1 <0>       0.1400
   17 N17       1.3996    -6.8031    -4.2345 N.ar   1 <0>      -0.4500
   18 C18       1.3178    -6.0749    -3.1375 C.ar   1 <0>       0.2400
   19 C19       1.2990    -6.7565    -1.8294 C.2    1 <0>       0.0000
   20 C20       1.3645    -8.1014    -1.6279 C.2    1 <0>      -0.1300
   21 C21       1.3157    -8.3054    -0.2362 C.2    1 <0>      -0.2200
   22 C22       1.2237    -7.0890     0.3390 C.2    1 <0>       0.0100
   23 C23       1.1458    -6.8213     1.8200 C.3    1 <0>      -0.0800
   24 O24       1.2198    -6.1561    -0.6257 O.3    1 <0>      -0.1700
   25 C25       1.2520    -4.6710    -3.1730 C.ar   1 <0>      -0.1200
   26 C26      -0.9072    -2.6169    -3.2231 C.3    1 <0>       0.0900
   27 C27      -2.2356    -2.1304    -3.8040 C.3    1 <0>       0.1000
   28 H28      -2.7334     1.8642    -2.2677 H      1 <0>       0.1000
   29 H29      -2.7705     1.8839    -4.0472 H      1 <0>       0.0800
   30 H30      -4.2931     1.8665    -3.1254 H      1 <0>       0.1000
   31 H31      -1.1790    -0.1169    -5.5025 H      1 <0>       0.0800
   32 H32      -1.2741     1.1406    -4.2421 H      1 <0>       0.1100
   33 H33       0.9965    -0.0264    -4.4406 H      1 <0>       0.1100
   34 H34       0.2662    -0.0671    -2.8145 H      1 <0>       0.0800
   35 H35       1.3276    -3.2099    -6.9972 H      1 <0>       0.1300
   36 H36       1.4837    -4.6523    -8.9592 H      1 <0>       0.1300
   37 H37       1.5991    -7.0950    -8.7155 H      1 <0>       0.1400
   38 H38       1.5606    -8.1351    -6.5147 H      1 <0>       0.1400
   39 H39       1.4391    -8.8641    -2.3889 H      1 <0>       0.1600
   40 H40       1.3458    -9.2565     0.2746 H      1 <0>       0.1600
   41 H41       2.1522    -6.6999     2.2207 H      1 <0>       0.0900
   42 H42       0.5728    -5.9107     1.9950 H      1 <0>       0.0800
   43 H43       0.6561    -7.6596     2.3155 H      1 <0>       0.0900
   44 H44       1.1860    -4.1052    -2.2554 H      1 <0>       0.1500
   45 H45      -0.7936    -3.6847    -3.4103 H      1 <0>       0.1000
   46 H46      -0.8887    -2.4272    -2.1499 H      1 <0>       0.0800
   47 H47      -3.0603    -2.5184    -3.2061 H      1 <0>       0.1100
   48 H48      -2.3329    -2.4753    -4.8334 H      1 <0>       0.0700
@<TRIPOS>BOND
   1    1    2 1
   2    1   28 1
   3    1   29 1
   4    1   30 1
   5    2    3 2
   6    2    4 am
   7    4   27 1
   8    4    5 1
   9    5    6 1
  10    5   31 1
  11    5   32 1
  12    6    7 1
  13    6   33 1
  14    6   34 1
  15    7    8 am
  16    7   26 1
  17    8    9 2
  18    8   10 1
  19   10   25 ar
  20   10   11 ar
  21   11   16 ar
  22   11   12 ar
  23   12   13 ar
  24   12   35 1
  25   13   14 ar
  26   13   36 1
  27   14   15 ar
  28   14   37 1
  29   15   16 ar
  30   15   38 1
  31   16   17 ar
  32   17   18 ar
  33   18   19 1
  34   18   25 ar
  35   19   24 1
  36   19   20 2
  37   20   21 1
  38   20   39 1
  39   21   22 2
  40   21   40 1
  41   22   23 1
  42   22   24 1
  43   23   41 1
  44   23   42 1
  45   23   43 1
  46   25   44 1
  47   26   27 1
  48   26   45 1
  49   26   46 1
  50   27   47 1
  51   27   48 1
