@<TRIPOS>MOLECULE
ZINC000044419004
54    54    1     0     0
SMALL
USER_CHARGES
@<TRIPOS>ATOM
1      C1     -1.5382    2.2478   -0.8847 C.3      1 ZINC000044419004   -0.1500
2      C2     -1.3783    0.7266   -0.9221 C.3      1 ZINC000044419004   -0.1300
3      C3     -2.7436    0.0652   -0.7239 C.3      1 ZINC000044419004   -0.1200
4      C4     -2.5836   -1.4560   -0.7613 C.3      1 ZINC000044419004   -0.1200
5      C5     -3.9489   -2.1174   -0.5630 C.3      1 ZINC000044419004   -0.1200
6      C6     -3.7889   -3.6386   -0.6004 C.3      1 ZINC000044419004   -0.1200
7      C7     -5.1542   -4.3000   -0.4022 C.3      1 ZINC000044419004   -0.1200
8      C8     -4.9943   -5.8212   -0.4396 C.3      1 ZINC000044419004   -0.1200
9      C9     -6.3596   -6.4826   -0.2413 C.3      1 ZINC000044419004   -0.1200
10     C10    -6.1996   -8.0037   -0.2787 C.3      1 ZINC000044419004   -0.1200
11     C11    -7.5649   -8.6652   -0.0805 C.3      1 ZINC000044419004   -0.1200
12     C12    -7.4049  -10.1863   -0.1179 C.3      1 ZINC000044419004   -0.1200
13     C13    -8.7702  -10.8478    0.0804 C.3      1 ZINC000044419004   -0.0800
14     C14    -8.6126  -12.3461    0.0435 C.ar     1 ZINC000044419004   -0.0600
15     C15    -8.8150  -13.0321   -1.1333 C.ar     1 ZINC000044419004   -0.1300
16     C16    -8.6711  -14.4100   -1.1737 C.ar     1 ZINC000044419004   -0.1300
17     C17    -8.3241  -15.1103   -0.0359 C.ar     1 ZINC000044419004   -0.1600
18     C18    -8.1165  -14.4371    1.1591 C.ar     1 ZINC000044419004    0.1100
19     O19    -7.7760  -15.1238    2.2777 O.3      1 ZINC000044419004   -0.4900
20     C20    -8.2549  -13.0416    1.2033 C.ar     1 ZINC000044419004   -0.1300
21     C21    -8.0375  -12.3155    2.4648 C.2      1 ZINC000044419004    0.5400
22     O22    -6.9169  -11.9227    2.7591 O.co2    1 ZINC000044419004   -0.6900
23     O23    -8.9773  -12.1048    3.2191 O.co2    1 ZINC000044419004   -0.6800
24     H24    -0.5656    2.7190   -1.0260 H        1 ZINC000044419004    0.0500
25     H25    -2.2132    2.5618   -1.6809 H        1 ZINC000044419004    0.0500
26     H26    -1.9500    2.5462    0.0794 H        1 ZINC000044419004    0.0500
27     H27    -0.9665    0.4282   -1.8862 H        1 ZINC000044419004    0.0600
28     H28    -0.7033    0.4126   -0.1259 H        1 ZINC000044419004    0.0600
29     H29    -3.1553    0.3636    0.2403 H        1 ZINC000044419004    0.0600
30     H30    -3.4185    0.3792   -1.5201 H        1 ZINC000044419004    0.0600
31     H31    -2.1719   -1.7544   -1.7254 H        1 ZINC000044419004    0.0600
32     H32    -1.9087   -1.7700    0.0349 H        1 ZINC000044419004    0.0600
33     H33    -4.3606   -1.8190    0.4011 H        1 ZINC000044419004    0.0600
34     H34    -4.6238   -1.8034   -1.3592 H        1 ZINC000044419004    0.0600
35     H35    -3.3772   -3.9370   -1.5645 H        1 ZINC000044419004    0.0600
36     H36    -3.1140   -3.9526    0.1958 H        1 ZINC000044419004    0.0600
37     H37    -5.5660   -4.0016    0.5620 H        1 ZINC000044419004    0.0600
38     H38    -5.8292   -3.9860   -1.1984 H        1 ZINC000044419004    0.0600
39     H39    -4.5825   -6.1196   -1.4037 H        1 ZINC000044419004    0.0600
40     H40    -4.3193   -6.1352    0.3566 H        1 ZINC000044419004    0.0600
41     H41    -6.7713   -6.1842    0.7228 H        1 ZINC000044419004    0.0600
42     H42    -7.0345   -6.1685   -1.0375 H        1 ZINC000044419004    0.0600
43     H43    -5.7879   -8.3022   -1.2428 H        1 ZINC000044419004    0.0600
44     H44    -5.5247   -8.3178    0.5175 H        1 ZINC000044419004    0.0600
45     H45    -7.9766   -8.3668    0.8837 H        1 ZINC000044419004    0.0600
46     H46    -8.2398   -8.3511   -0.8767 H        1 ZINC000044419004    0.0500
47     H47    -6.9932  -10.4848   -1.0820 H        1 ZINC000044419004    0.0500
48     H48    -6.7300  -10.5004    0.6783 H        1 ZINC000044419004    0.0800
49     H49    -9.1820  -10.5493    1.0445 H        1 ZINC000044419004    0.0800
50     H50    -9.4452  -10.5337   -0.7158 H        1 ZINC000044419004    0.0600
51     H51    -9.0875  -12.4937   -2.0290 H        1 ZINC000044419004    0.1200
52     H52    -8.8319  -14.9393   -2.1013 H        1 ZINC000044419004    0.1200
53     H53    -8.2144  -16.1840   -0.0761 H        1 ZINC000044419004    0.1200
54     H54    -6.8225  -15.2281    2.4002 H        1 ZINC000044419004    0.3800
@<TRIPOS>BOND
1     1     2     1
2     1     24    1
3     1     25    1
4     1     26    1
5     2     3     1
6     2     27    1
7     2     28    1
8     3     4     1
9     3     29    1
10    3     30    1
11    4     5     1
12    4     31    1
13    4     32    1
14    5     6     1
15    5     33    1
16    5     34    1
17    6     7     1
18    6     35    1
19    6     36    1
20    7     8     1
21    7     37    1
22    7     38    1
23    8     9     1
24    8     39    1
25    8     40    1
26    9     10    1
27    9     41    1
28    9     42    1
29    10    11    1
30    10    43    1
31    10    44    1
32    11    12    1
33    11    45    1
34    11    46    1
35    12    13    1
36    12    47    1
37    12    48    1
38    13    14    1
39    13    49    1
40    13    50    1
41    14    20    ar
42    14    15    ar
43    15    16    ar
44    15    51    1
45    16    17    ar
46    16    52    1
47    17    18    ar
48    17    53    1
49    18    19    1
50    18    20    ar
51    19    54    1
52    20    21    1
53    21    22    ar
54    21    23    ar
@<TRIPOS>SUBSTRUCTURE
1   ZINC000044419004 1     RESIDUE    1   A     ZIN   1
