@<TRIPOS>MOLECULE
ZINC000143379751
61    64    1     0     0
SMALL
USER_CHARGES
@<TRIPOS>ATOM
1      C1     -0.3115    1.5802   -1.0345 C.3      1 ZINC000143379751   -0.1700
2      C2     -0.3335    0.0587   -1.1937 C.3      1 ZINC000143379751    0.1300
3      N3     -1.5337   -0.4823   -0.5511 N.am     1 ZINC000143379751   -0.7400
4      C4     -1.7655   -1.8099   -0.5653 C.2      1 ZINC000143379751    0.7000
5      O5     -0.9784   -2.5586   -1.1115 O.2      1 ZINC000143379751   -0.5700
6      N6     -2.8696   -2.3076    0.0259 N.am     1 ZINC000143379751   -0.6900
7      C7     -3.1596   -3.6707   -0.0708 C.ar     1 ZINC000143379751    0.1900
8      C8     -2.1268   -4.6014   -0.0733 C.ar     1 ZINC000143379751   -0.1300
9      C9     -2.4102   -5.9466   -0.1686 C.ar     1 ZINC000143379751   -0.0500
10     C10    -3.7346   -6.3742   -0.2621 C.ar     1 ZINC000143379751   -0.0700
11     C11    -4.0421   -7.8203   -0.3642 C.ar     1 ZINC000143379751    0.4000
12     N12    -3.0482   -8.6981   -0.3601 N.ar     1 ZINC000143379751   -0.5300
13     C13    -3.3033   -9.9940   -0.4499 C.ar     1 ZINC000143379751    0.3900
14     N14    -2.2626  -10.9087   -0.4448 N.3      1 ZINC000143379751   -0.4800
15     C15    -1.3329  -10.6552   -1.5550 C.3      1 ZINC000143379751    0.0200
16     C16    -0.2345  -11.7217   -1.5474 C.3      1 ZINC000143379751    0.0700
17     O17     0.4232  -11.7124   -0.2775 O.3      1 ZINC000143379751   -0.3800
18     C18    -0.4527  -11.9566    0.8264 C.3      1 ZINC000143379751    0.0700
19     C19    -1.5533  -10.8925    0.8427 C.3      1 ZINC000143379751    0.0500
20     H20    -1.1076   -9.9103    1.0004 H        1 ZINC000143379751    0.0700
21     C21    -2.5386  -11.1939    1.9738 C.3      1 ZINC000143379751   -0.1500
22     C22    -4.6353  -10.4404   -0.5503 C.ar     1 ZINC000143379751   -0.1700
23     C23    -5.0945  -11.8851   -0.6598 C.3      1 ZINC000143379751   -0.5300
24     S24    -6.8676  -11.8160   -0.2070 S.o2     1 ZINC000143379751    2.4000
25     O25    -7.6248  -12.6236   -1.0978 O.2      1 ZINC000143379751   -0.9100
26     O26    -7.0129  -11.9700    1.1982 O.2      1 ZINC000143379751   -0.9100
27     C27    -7.0481  -10.0514   -0.6619 C.3      1 ZINC000143379751   -0.4700
28     C28    -7.5665   -9.9164   -2.0951 C.3      1 ZINC000143379751   -0.1200
29     C29    -7.9839   -9.3376    0.3157 C.3      1 ZINC000143379751   -0.1300
30     C30    -5.6349   -9.5010   -0.5513 C.ar     1 ZINC000143379751    0.2000
31     N31    -5.3015   -8.2098   -0.4522 N.ar     1 ZINC000143379751   -0.5000
32     C32    -4.7690   -5.4385   -0.2590 C.ar     1 ZINC000143379751   -0.0400
33     C33    -4.4806   -4.0947   -0.1586 C.ar     1 ZINC000143379751   -0.1600
34     H34     0.5815    1.9828   -1.5126 H        1 ZINC000143379751    0.0800
35     H35    -1.1983    2.0074   -1.5028 H        1 ZINC000143379751    0.0600
36     H36    -0.3021    1.8345    0.0254 H        1 ZINC000143379751    0.0600
37     H37    -0.3429   -0.1956   -2.2536 H        1 ZINC000143379751    0.0700
38     H38     0.5533   -0.3684   -0.7254 H        1 ZINC000143379751    0.0700
39     H39    -2.1616    0.1150   -0.1153 H        1 ZINC000143379751    0.4000
40     H40    -3.4630   -1.7193    0.5186 H        1 ZINC000143379751    0.4100
41     H41    -1.1015   -4.2698   -0.0009 H        1 ZINC000143379751    0.1500
42     H42    -1.6075   -6.6692   -0.1712 H        1 ZINC000143379751    0.1400
43     H43    -1.8744  -10.6972   -2.5001 H        1 ZINC000143379751    0.0900
44     H44    -0.8837   -9.6693   -1.4357 H        1 ZINC000143379751    0.0700
45     H45    -0.6781  -12.7023   -1.7203 H        1 ZINC000143379751    0.0600
46     H46     0.4887  -11.5050   -2.3335 H        1 ZINC000143379751    0.1100
47     H47    -0.9026  -12.9440    0.7225 H        1 ZINC000143379751    0.0600
48     H48     0.1128  -11.9097    1.7570 H        1 ZINC000143379751    0.1100
49     H49    -1.9967  -11.2735    2.9162 H        1 ZINC000143379751    0.0800
50     H50    -3.2703  -10.3890    2.0423 H        1 ZINC000143379751    0.0500
51     H51    -3.0507  -12.1340    1.7686 H        1 ZINC000143379751    0.0700
52     H52    -4.9740  -12.2487   -1.6803 H        1 ZINC000143379751    0.1600
53     H53    -4.5452  -12.5154    0.0395 H        1 ZINC000143379751    0.1500
54     H54    -8.5379  -10.4039   -2.1775 H        1 ZINC000143379751    0.0900
55     H55    -7.6672   -8.8607   -2.3471 H        1 ZINC000143379751    0.0900
56     H56    -6.8636  -10.3884   -2.7816 H        1 ZINC000143379751    0.0700
57     H57    -7.5745   -9.4028    1.3238 H        1 ZINC000143379751    0.0800
58     H58    -8.0787   -8.2903    0.0290 H        1 ZINC000143379751    0.0900
59     H59    -8.9653   -9.8113    0.2908 H        1 ZINC000143379751    0.0800
60     H60    -5.7952   -5.7672   -0.3316 H        1 ZINC000143379751    0.1400
61     H61    -5.2812   -3.3698   -0.1561 H        1 ZINC000143379751    0.1300
@<TRIPOS>BOND
1     1     2     1
2     1     34    1
3     1     35    1
4     1     36    1
5     2     3     1
6     2     37    1
7     2     38    1
8     3     4     am
9     3     39    1
10    4     5     2
11    4     6     am
12    6     7     1
13    6     40    1
14    7     33    ar
15    7     8     ar
16    8     9     ar
17    8     41    1
18    9     10    ar
19    9     42    1
20    10    11    1
21    10    32    ar
22    11    31    ar
23    11    12    ar
24    12    13    ar
25    13    14    1
26    13    22    ar
27    14    19    1
28    14    15    1
29    15    16    1
30    15    43    1
31    15    44    1
32    16    17    1
33    16    45    1
34    16    46    1
35    17    18    1
36    18    19    1
37    18    47    1
38    18    48    1
39    19    20    1
40    19    21    1
41    21    49    1
42    21    50    1
43    21    51    1
44    22    30    ar
45    22    23    1
46    23    24    1
47    23    52    1
48    23    53    1
49    24    25    2
50    24    26    2
51    24    27    1
52    27    28    1
53    27    29    1
54    27    30    1
55    28    54    1
56    28    55    1
57    28    56    1
58    29    57    1
59    29    58    1
60    29    59    1
61    30    31    ar
62    32    33    ar
63    32    60    1
64    33    61    1
@<TRIPOS>SUBSTRUCTURE
1   ZINC000143379751 1     RESIDUE    1   A     ZIN   1
