@<TRIPOS>MOLECULE
ZINC000008589864
40    43    1     0     0
SMALL
USER_CHARGES
@<TRIPOS>ATOM
1      N1     -0.0165    1.3836    0.0137 N.pl3    1 ZINC000008589864   -0.8200
2      C2      0.0022   -0.0044   -0.0031 C.2      1 ZINC000008589864    0.3200
3      C3     -1.1269   -0.7580   -0.0033 C.2      1 ZINC000008589864   -0.3800
4      C4     -2.4413   -0.2322    0.0142 C.2      1 ZINC000008589864    0.6100
5      O5     -2.6149    0.9733    0.0307 O.2      1 ZINC000008589864   -0.5300
6      N6     -3.5005   -1.0656    0.0125 N.am     1 ZINC000008589864   -0.6700
7      C7     -4.7965   -0.5503    0.1274 C.ar     1 ZINC000008589864    0.1400
8      C8     -5.7655   -1.2554    0.8292 C.ar     1 ZINC000008589864   -0.1100
9      C9     -7.0438   -0.7447    0.9418 C.ar     1 ZINC000008589864   -0.1300
10     C10    -7.3597    0.4692    0.3552 C.ar     1 ZINC000008589864    0.0800
11     F11    -8.6107    0.9669    0.4665 F        1 ZINC000008589864   -0.1400
12     C12    -6.3950    1.1739   -0.3451 C.ar     1 ZINC000008589864   -0.1300
13     C13    -5.1139    0.6697   -0.4553 C.ar     1 ZINC000008589864   -0.0900
14     S14    -0.7425   -2.4674   -0.0279 S.3      1 ZINC000008589864    0.2100
15     C15     0.9895   -2.1568   -0.0383 C.ar     1 ZINC000008589864    0.1100
16     N16     2.0115   -3.0151   -0.0575 N.ar     1 ZINC000008589864   -0.4300
17     C17     3.2702   -2.6056   -0.0627 C.ar     1 ZINC000008589864    0.2700
18     C18     4.3596   -3.5997   -0.0847 C.2      1 ZINC000008589864   -0.1900
19     C19     4.1924   -4.9393   -0.1060 C.2      1 ZINC000008589864   -0.0600
20     C20     5.3629   -5.6654   -0.1244 C.2      1 ZINC000008589864   -0.1400
21     C21     6.4835   -4.9349   -0.1183 C.2      1 ZINC000008589864   -0.1900
22     S22     6.0778   -3.2239   -0.0948 S.3      1 ZINC000008589864    0.1500
23     C23     3.5804   -1.2394   -0.0482 C.ar     1 ZINC000008589864   -0.1200
24     C24     2.5724   -0.3233   -0.0284 C.ar     1 ZINC000008589864   -0.0700
25     C25     2.8802    1.1518   -0.0129 C.3      1 ZINC000008589864    0.5000
26     F26     4.2665    1.3391   -0.0223 F        1 ZINC000008589864   -0.1600
27     F27     2.3201    1.7569   -1.1431 F        1 ZINC000008589864   -0.1600
28     F28     2.3395    1.7289    1.1412 F        1 ZINC000008589864   -0.1600
29     C29     1.2308   -0.7774   -0.0284 C.ar     1 ZINC000008589864   -0.1400
30     H30     0.8169    1.8799    0.0087 H        1 ZINC000008589864    0.3900
31     H31    -0.8629    1.8572    0.0263 H        1 ZINC000008589864    0.4300
32     H32    -3.3645   -2.0226   -0.0684 H        1 ZINC000008589864    0.4100
33     H33    -5.5197   -2.2025    1.2863 H        1 ZINC000008589864    0.1400
34     H34    -7.7976   -1.2927    1.4875 H        1 ZINC000008589864    0.1400
35     H35    -6.6435    2.1203   -0.8021 H        1 ZINC000008589864    0.1400
36     H36    -4.3618    1.2198   -1.0012 H        1 ZINC000008589864    0.1500
37     H37     3.2179   -5.4049   -0.1081 H        1 ZINC000008589864    0.1500
38     H38     5.3750   -6.7452   -0.1420 H        1 ZINC000008589864    0.1500
39     H39     7.4864   -5.3355   -0.1299 H        1 ZINC000008589864    0.1700
40     H40     4.6106   -0.9151   -0.0522 H        1 ZINC000008589864    0.1600
@<TRIPOS>BOND
1     1     2     1
2     1     30    1
3     1     31    1
4     2     29    1
5     2     3     2
6     3     4     1
7     3     14    1
8     4     5     2
9     4     6     am
10    6     7     1
11    6     32    1
12    7     13    ar
13    7     8     ar
14    8     9     ar
15    8     33    1
16    9     10    ar
17    9     34    1
18    10    11    1
19    10    12    ar
20    12    13    ar
21    12    35    1
22    13    36    1
23    14    15    1
24    15    29    ar
25    15    16    ar
26    16    17    ar
27    17    18    1
28    17    23    ar
29    18    22    1
30    18    19    2
31    19    20    1
32    19    37    1
33    20    21    2
34    20    38    1
35    21    22    1
36    21    39    1
37    23    24    ar
38    23    40    1
39    24    25    1
40    24    29    ar
41    25    26    1
42    25    27    1
43    25    28    1
@<TRIPOS>SUBSTRUCTURE
1   ZINC000008589864 1     RESIDUE    1   A     ZIN   1
