@<TRIPOS>MOLECULE
ZINC000084689624
44    45    1     0     0
SMALL
USER_CHARGES
@<TRIPOS>ATOM
1      C1      0.0322    2.5294    0.0020 C.3      1 ZINC000084689624   -0.1600
2      C2     -0.2560    1.0829   -0.4047 C.3      1 ZINC000084689624    0.1800
3      C3      0.3138    0.1331    0.6509 C.3      1 ZINC000084689624   -0.1600
4      C4     -1.7679    0.8755   -0.5145 C.3      1 ZINC000084689624   -0.1600
5      N5      0.3702    0.8057   -1.6998 N.pl3    1 ZINC000084689624   -0.7000
6      C6      1.7409    0.9273   -1.8458 C.ar     1 ZINC000084689624    0.5300
7      N7      2.4819    1.2888   -0.8109 N.ar     1 ZINC000084689624   -0.6100
8      C8      3.7995    1.4181   -0.9028 C.ar     1 ZINC000084689624    0.4900
9      N9      4.5263    1.8002    0.2158 N.pl3    1 ZINC000084689624   -0.6600
10     C10     5.8796    2.1031    0.0963 C.ar     1 ZINC000084689624    0.2000
11     C11     6.3271    2.8738   -0.9731 C.ar     1 ZINC000084689624   -0.1500
12     C12     7.6644    3.1754   -1.0938 C.ar     1 ZINC000084689624   -0.0300
13     C13     8.5737    2.7068   -0.1411 C.ar     1 ZINC000084689624   -0.1600
14     C14    10.0081    3.0287   -0.2673 C.2      1 ZINC000084689624    0.5600
15     N15    10.8837    2.5762    0.6521 N.am     1 ZINC000084689624   -0.8500
16     O16    10.4003    3.7021   -1.2006 O.2      1 ZINC000084689624   -0.5400
17     C17     8.1212    1.9331    0.9315 C.ar     1 ZINC000084689624   -0.0600
18     C18     6.7819    1.6394    1.0495 C.ar     1 ZINC000084689624   -0.1500
19     C19     4.4637    1.1773   -2.0980 C.ar     1 ZINC000084689624   -0.3600
20     C20     3.7346    0.7946   -3.2178 C.ar     1 ZINC000084689624    0.3700
21     N21     4.3659    0.5462   -4.4272 N.pl3    1 ZINC000084689624   -0.8500
22     C22     2.3361    0.6602   -3.0904 C.ar     1 ZINC000084689624   -0.2700
23     C23     1.5363    0.2685   -4.2118 C.1      1 ZINC000084689624    0.2700
24     N24     0.9018   -0.0422   -5.1014 N.1      1 ZINC000084689624   -0.4400
25     H25     1.1093    2.6771    0.0802 H        1 ZINC000084689624    0.0900
26     H26    -0.3737    3.2060   -0.7500 H        1 ZINC000084689624    0.0500
27     H27    -0.4337    2.7356    0.9656 H        1 ZINC000084689624    0.0600
28     H28    -0.1521    0.3393    1.6145 H        1 ZINC000084689624    0.0600
29     H29     0.1085   -0.8974    0.3611 H        1 ZINC000084689624    0.0500
30     H30     1.3909    0.2808    0.7290 H        1 ZINC000084689624    0.0900
31     H31    -2.1738    1.5521   -1.2665 H        1 ZINC000084689624    0.0600
32     H32    -1.9732   -0.1550   -0.8042 H        1 ZINC000084689624    0.0600
33     H33    -2.2338    1.0817    0.4491 H        1 ZINC000084689624    0.0800
34     H34    -0.1760    0.5371   -2.4551 H        1 ZINC000084689624    0.4100
35     H35     4.0913    1.8563    1.0809 H        1 ZINC000084689624    0.4200
36     H36     5.6240    3.2352   -1.7090 H        1 ZINC000084689624    0.1400
37     H37     8.0110    3.7731   -1.9238 H        1 ZINC000084689624    0.1400
38     H38    10.5708    2.0389    1.3966 H        1 ZINC000084689624    0.4000
39     H39    11.8267    2.7878    0.5691 H        1 ZINC000084689624    0.4100
40     H40     8.8214    1.5696    1.6692 H        1 ZINC000084689624    0.1300
41     H41     6.4316    1.0420    1.8782 H        1 ZINC000084689624    0.1400
42     H42     5.5365    1.2867   -2.1573 H        1 ZINC000084689624    0.1400
43     H43     5.3288    0.6389   -4.4997 H        1 ZINC000084689624    0.4100
44     H44     3.8448    0.2798   -5.2007 H        1 ZINC000084689624    0.4000
@<TRIPOS>BOND
1     1     2     1
2     1     25    1
3     1     26    1
4     1     27    1
5     2     3     1
6     2     4     1
7     2     5     1
8     3     28    1
9     3     29    1
10    3     30    1
11    4     31    1
12    4     32    1
13    4     33    1
14    5     6     1
15    5     34    1
16    6     22    ar
17    6     7     ar
18    7     8     ar
19    8     9     1
20    8     19    ar
21    9     10    1
22    9     35    1
23    10    18    ar
24    10    11    ar
25    11    12    ar
26    11    36    1
27    12    13    ar
28    12    37    1
29    13    14    1
30    13    17    ar
31    14    15    am
32    14    16    2
33    15    38    1
34    15    39    1
35    17    18    ar
36    17    40    1
37    18    41    1
38    19    20    ar
39    19    42    1
40    20    21    1
41    20    22    ar
42    21    43    1
43    21    44    1
44    22    23    1
45    23    24    3
@<TRIPOS>SUBSTRUCTURE
1   ZINC000084689624 1     RESIDUE    1   A     ZIN   1
