@<TRIPOS>MOLECULE
ZINC000001176931
49    51    1     0     0
SMALL
USER_CHARGES
@<TRIPOS>ATOM
1      O1      0.0020   -0.0040    0.0119 O.2      1 ZINC000001176931   -0.5000
2      C2     -0.0145    1.2116    0.0104 C.2      1 ZINC000001176931    0.5600
3      N3      1.1435    1.9011    0.0014 N.am     1 ZINC000001176931   -0.6700
4      C4      2.3626    1.2219    0.0916 C.ar     1 ZINC000001176931    0.1500
5      C5      3.4243    1.7870    0.7857 C.ar     1 ZINC000001176931   -0.0900
6      C6      4.6271    1.1135    0.8729 C.ar     1 ZINC000001176931   -0.0900
7      C7      4.7746   -0.1221    0.2702 C.ar     1 ZINC000001176931   -0.0700
8      C8      3.7191   -0.6877   -0.4218 C.ar     1 ZINC000001176931   -0.0200
9      N9      3.8814   -2.0107   -1.0656 N.pl3    1 ZINC000001176931    0.0300
10     O10     4.9441   -2.6005   -0.9858 O.2      1 ZINC000001176931   -0.1500
11     O11     2.9524   -2.5094   -1.6752 O.2      1 ZINC000001176931   -0.1500
12     C12     2.5123   -0.0222   -0.5080 C.ar     1 ZINC000001176931   -0.0600
13     C13    -1.3044    1.9333    0.0124 C.ar     1 ZINC000001176931   -0.1600
14     C14    -1.3269    3.3288    0.0049 C.ar     1 ZINC000001176931   -0.0300
15     C15    -2.5344    3.9962    0.0064 C.ar     1 ZINC000001176931   -0.1400
16     C16    -3.7212    3.2854    0.0152 C.ar     1 ZINC000001176931    0.0100
17     C17    -3.7060    1.9016    0.0232 C.ar     1 ZINC000001176931   -0.6800
18     S18    -5.2233    1.0060    0.0345 S.o2     1 ZINC000001176931    2.6800
19     O19    -4.9314   -0.2710    0.5851 O.2      1 ZINC000001176931   -0.9500
20     O20    -6.2020    1.8814    0.5778 O.2      1 ZINC000001176931   -0.9500
21     N21    -5.6518    0.7477   -1.5442 N.am     1 ZINC000001176931   -0.9900
22     C22    -6.4713    1.7351   -2.2103 C.3      1 ZINC000001176931    0.1200
23     C23    -7.9677    1.4001   -1.9935 C.3      1 ZINC000001176931   -0.1400
24     C24    -8.3415    0.2069   -2.7684 C.3      1 ZINC000001176931   -0.1200
25     C25    -7.6064   -1.0652   -2.3572 C.3      1 ZINC000001176931   -0.1200
26     C26    -6.2802   -1.1303   -3.0739 C.3      1 ZINC000001176931   -0.1200
27     C27    -5.1764   -0.4782   -2.2148 C.3      1 ZINC000001176931    0.1100
28     C28    -2.5058    1.2220    0.0160 C.ar     1 ZINC000001176931    0.0400
29     H29     1.1313    2.8686   -0.0678 H        1 ZINC000001176931    0.4200
30     H30     3.3099    2.7523    1.2564 H        1 ZINC000001176931    0.1500
31     H31     5.4534    1.5526    1.4123 H        1 ZINC000001176931    0.1600
32     H32     5.7162   -0.6465    0.3396 H        1 ZINC000001176931    0.1600
33     H33     1.6883   -0.4646   -1.0482 H        1 ZINC000001176931    0.1700
34     H34    -0.4011    3.8849   -0.0017 H        1 ZINC000001176931    0.1400
35     H35    -2.5532    5.0761    0.0009 H        1 ZINC000001176931    0.1500
36     H36    -4.6637    3.8127    0.0163 H        1 ZINC000001176931    0.1500
37     H37    -6.2570    2.7216   -1.7994 H        1 ZINC000001176931    0.0800
38     H38    -6.2493    1.7308   -3.2775 H        1 ZINC000001176931    0.0800
39     H39    -8.1458    1.2130   -0.9346 H        1 ZINC000001176931    0.0700
40     H40    -8.5768    2.2447   -2.3154 H        1 ZINC000001176931    0.0800
41     H41    -9.4125    0.0406   -2.6524 H        1 ZINC000001176931    0.0600
42     H42    -8.1369    0.4000   -3.8214 H        1 ZINC000001176931    0.0600
43     H43    -7.4377   -1.0559   -1.2804 H        1 ZINC000001176931    0.0600
44     H44    -8.2070   -1.9347   -2.6241 H        1 ZINC000001176931    0.0700
45     H45    -6.0226   -2.1723   -3.2635 H        1 ZINC000001176931    0.0800
46     H46    -6.3560   -0.6001   -4.0233 H        1 ZINC000001176931    0.0700
47     H47    -4.3286   -0.2329   -2.8545 H        1 ZINC000001176931    0.0700
48     H48    -4.8510   -1.1905   -1.4566 H        1 ZINC000001176931    0.1000
49     H49    -2.4953    0.1421    0.0219 H        1 ZINC000001176931    0.1600
@<TRIPOS>BOND
1     1     2     2
2     2     3     am
3     2     13    1
4     3     4     1
5     3     29    1
6     4     12    ar
7     4     5     ar
8     5     6     ar
9     5     30    1
10    6     7     ar
11    6     31    1
12    7     8     ar
13    7     32    1
14    8     9     1
15    8     12    ar
16    9     10    2
17    9     11    2
18    12    33    1
19    13    28    ar
20    13    14    ar
21    14    15    ar
22    14    34    1
23    15    16    ar
24    15    35    1
25    16    17    ar
26    16    36    1
27    17    18    1
28    17    28    ar
29    18    19    2
30    18    20    2
31    18    21    am
32    21    27    1
33    21    22    1
34    22    23    1
35    22    37    1
36    22    38    1
37    23    24    1
38    23    39    1
39    23    40    1
40    24    25    1
41    24    41    1
42    24    42    1
43    25    26    1
44    25    43    1
45    25    44    1
46    26    27    1
47    26    45    1
48    26    46    1
49    27    47    1
50    27    48    1
51    28    49    1
@<TRIPOS>SUBSTRUCTURE
1   ZINC000001176931 1     RESIDUE    1   A     ZIN   1
