@<TRIPOS>MOLECULE
ZINC000001868508
  19   19    0    0    0
SMALL
USER_CHARGES
NO_NAME
@<TRIPOS>ATOM
    1 C1       -0.0184     1.5028     0.0103 C.3    1 <0>      -0.1400
    2 C2        0.0021    -0.0041     0.0020 C.2    1 <0>       0.4300
    3 O3        1.0565    -0.5939    -0.0112 O.2    1 <0>      -0.4600
    4 O4       -1.1511    -0.6910     0.0093 O.3    1 <0>      -0.3600
    5 C5       -1.0555    -2.1398     0.0006 C.3    1 <0>       0.2900
    6 N6       -0.7710    -2.6185     1.3557 N.am   1 <0>      -0.6000
    7 C7        0.4192    -2.5287     1.9760 C.2    1 <0>       0.5200
    8 O8        1.4281    -2.0406     1.5094 O.2    1 <0>      -0.4000
    9 C9        0.2899    -3.1251     3.3239 C.2    1 <0>      -0.1400
   10 C10      -0.9806    -3.5447     3.4424 C.2    1 <0>      -0.1400
   11 C11      -1.6615    -3.2101     2.1721 C.2    1 <0>       0.5500
   12 O12      -2.8245    -3.4377     1.9085 O.2    1 <0>      -0.4500
   13 H13       1.0042     1.8801     0.0026 H      1 <0>       0.1000
   14 H14      -0.5455     1.8639    -0.8728 H      1 <0>       0.1000
   15 H15      -0.5286     1.8543     0.9071 H      1 <0>       0.1000
   16 H16      -1.9984    -2.5641    -0.3441 H      1 <0>       0.1500
   17 H17      -0.2524    -2.4469    -0.6693 H      1 <0>       0.1100
   18 H18       1.0674    -3.2076     4.0689 H      1 <0>       0.1800
   19 H19      -1.4213    -4.0292     4.3011 H      1 <0>       0.1900
@<TRIPOS>BOND
   1    1    2 1
   2    1   13 1
   3    1   14 1
   4    1   15 1
   5    2    3 2
   6    2    4 1
   7    4    5 1
   8    5    6 1
   9    5   16 1
  10    5   17 1
  11    6   11 am
  12    6    7 am
  13    7    8 2
  14    7    9 1
  15    9   10 2
  16    9   18 1
  17   10   11 1
  18   10   19 1
  19   11   12 2
