@<TRIPOS>MOLECULE
ZINC000003869768
30    32    1     0     0
SMALL
USER_CHARGES
@<TRIPOS>ATOM
1      O1     -0.9048    1.1655   -0.0632 O.2      1 ZINC000003869768   -0.5400
2      C2     -0.5701    2.3395   -0.0199 C.2      1 ZINC000003869768    0.4200
3      C3     -1.5294    3.3609    0.0376 C.2      1 ZINC000003869768   -0.4900
4      C4     -1.1404    4.6820    0.0811 C.2      1 ZINC000003869768    0.3200
5      O5     -2.0949    5.6416    0.1450 O.3      1 ZINC000003869768   -0.6800
6      C6      0.2051    5.0693    0.0623 C.2      1 ZINC000003869768   -0.1500
7      C7      1.2048    4.1461    0.0032 C.2      1 ZINC000003869768    0.1000
8      O8      2.4999    4.5378   -0.0408 O.3      1 ZINC000003869768   -0.2900
9      C9      3.4781    3.6588    0.5261 C.3      1 ZINC000003869768    0.1100
10     C10     3.3163    3.6169    2.0238 C.ar     1 ZINC000003869768   -0.1400
11     C11     4.2966    3.0372    2.8079 C.ar     1 ZINC000003869768   -0.0900
12     C12     4.1507    2.9975    4.1810 C.ar     1 ZINC000003869768   -0.1500
13     C13     3.0196    3.5403    4.7732 C.ar     1 ZINC000003869768    0.1100
14     O14     2.8739    3.5029    6.1238 O.3      1 ZINC000003869768   -0.5000
15     C15     2.0377    4.1218    3.9843 C.ar     1 ZINC000003869768   -0.1400
16     C16     2.1906    4.1633    2.6119 C.ar     1 ZINC000003869768   -0.0800
17     C17     3.2629    2.2730   -0.0503 C.2      1 ZINC000003869768    0.3500
18     O18     4.1801    1.6138   -0.4788 O.2      1 ZINC000003869768   -0.4200
19     C19     1.8579    1.7646   -0.0606 C.2      1 ZINC000003869768    0.0800
20     O20     1.5806    0.4472   -0.1012 O.3      1 ZINC000003869768   -0.4100
21     C21     0.8539    2.7219   -0.0203 C.2      1 ZINC000003869768   -0.1600
22     H22    -2.5799    3.1103    0.0475 H        1 ZINC000003869768    0.1100
23     H23     0.4548    6.1196    0.0948 H        1 ZINC000003869768    0.1300
24     H24     4.4784    4.0109    0.2743 H        1 ZINC000003869768    0.1500
25     H25     5.1769    2.6148    2.3464 H        1 ZINC000003869768    0.1300
26     H26     4.9163    2.5440    4.7930 H        1 ZINC000003869768    0.1300
27     H27     3.2407    4.2724    6.5804 H        1 ZINC000003869768    0.3900
28     H28     1.1561    4.5448    4.4429 H        1 ZINC000003869768    0.1400
29     H29     1.4266    4.6161    1.9974 H        1 ZINC000003869768    0.1500
30     H30     2.3333   -0.1594   -0.1235 H        1 ZINC000003869768    0.4000
@<TRIPOS>BOND
1     1     2     2
2     2     21    1
3     2     3     1
4     3     4     2
5     3     22    1
6     4     5     1
7     4     6     1
8     6     7     2
9     6     23    1
10    7     21    1
11    7     8     1
12    8     9     1
13    9     10    1
14    9     17    1
15    9     24    1
16    10    16    ar
17    10    11    ar
18    11    12    ar
19    11    25    1
20    12    13    ar
21    12    26    1
22    13    14    1
23    13    15    ar
24    14    27    1
25    15    16    ar
26    15    28    1
27    16    29    1
28    17    18    2
29    17    19    1
30    19    20    1
31    19    21    2
32    20    30    1
@<TRIPOS>SUBSTRUCTURE
1   ZINC000003869768 1     RESIDUE    1   A     ZIN   1
