@<TRIPOS>MOLECULE
ZINC000007996283
42    45    1     0     0
SMALL
USER_CHARGES
@<TRIPOS>ATOM
1      O1      1.2308    3.8002    1.0282 O.2      1 ZINC000007996283   -0.4800
2      C2      0.5517    3.0014    0.4077 C.2      1 ZINC000007996283    0.5400
3      N3     -0.7076    3.3176    0.0468 N.am     1 ZINC000007996283   -0.6100
4      C4     -1.4637    2.4409   -0.6385 C.2      1 ZINC000007996283    0.5300
5      S5     -3.0599    2.8722   -1.0826 S.2      1 ZINC000007996283   -0.5300
6      N6     -0.9855    1.2308   -0.9809 N.am     1 ZINC000007996283   -0.5700
7      C7      0.2956    0.8634   -0.6338 C.2      1 ZINC000007996283    0.2200
8      C8      0.8178   -0.4662   -1.0106 C.ar     1 ZINC000007996283   -0.0700
9      C9      0.1289   -1.6219   -0.6371 C.ar     1 ZINC000007996283   -0.1100
10     C10     0.6222   -2.8602   -0.9923 C.ar     1 ZINC000007996283   -0.1000
11     C11     1.7968   -2.9586   -1.7170 C.ar     1 ZINC000007996283   -0.0900
12     C12     2.4848   -1.8174   -2.0900 C.ar     1 ZINC000007996283   -0.1100
13     C13     1.9995   -0.5726   -1.7469 C.ar     1 ZINC000007996283   -0.0700
14     C14     1.0803    1.7412    0.0571 C.2      1 ZINC000007996283   -0.2000
15     C15     2.4861    1.3654    0.4492 C.3      1 ZINC000007996283   -0.0200
16     C16     2.5073    0.9385    1.8943 C.ar     1 ZINC000007996283   -0.1000
17     C17     2.8804    1.8505    2.8946 C.ar     1 ZINC000007996283   -0.0300
18     C18     3.2402    3.1723    2.5786 C.ar     1 ZINC000007996283   -0.0800
19     C19     3.5961    4.0295    3.5738 C.ar     1 ZINC000007996283   -0.1200
20     C20     3.6098    3.6173    4.9052 C.ar     1 ZINC000007996283   -0.1100
21     C21     3.2676    2.3456    5.2488 C.ar     1 ZINC000007996283   -0.1100
22     C22     2.8943    1.4314    4.2489 C.ar     1 ZINC000007996283   -0.0600
23     C23     2.5343    0.1105    4.5669 C.ar     1 ZINC000007996283   -0.0900
24     C24     2.1777   -0.7490    3.5748 C.ar     1 ZINC000007996283   -0.1500
25     C25     2.1583   -0.3364    2.2391 C.ar     1 ZINC000007996283    0.1100
26     O26     1.7971   -1.2181    1.2702 O.3      1 ZINC000007996283   -0.4900
27     H27    -1.0721    4.1848    0.2834 H        1 ZINC000007996283    0.4500
28     H28    -1.5467    0.6130   -1.4751 H        1 ZINC000007996283    0.4500
29     H29    -0.7878   -1.5465   -0.0712 H        1 ZINC000007996283    0.1300
30     H30     0.0905   -3.7549   -0.7038 H        1 ZINC000007996283    0.1300
31     H31     2.1786   -3.9306   -1.9925 H        1 ZINC000007996283    0.1300
32     H32     3.4014   -1.9014   -2.6550 H        1 ZINC000007996283    0.1300
33     H33     2.5373    0.3173   -2.0389 H        1 ZINC000007996283    0.1300
34     H34     2.8307    0.5431   -0.1777 H        1 ZINC000007996283    0.1100
35     H35     3.1429    2.2248    0.3146 H        1 ZINC000007996283    0.1000
36     H36     3.2346    3.5056    1.5514 H        1 ZINC000007996283    0.1400
37     H37     3.8724    5.0443    3.3283 H        1 ZINC000007996283    0.1200
38     H38     3.8966    4.3175    5.6759 H        1 ZINC000007996283    0.1200
39     H39     3.2832    2.0405    6.2847 H        1 ZINC000007996283    0.1300
40     H40     2.5412   -0.2209    5.5948 H        1 ZINC000007996283    0.1300
41     H41     1.9017   -1.7632    3.8228 H        1 ZINC000007996283    0.1300
42     H42     0.8411   -1.3038    1.1529 H        1 ZINC000007996283    0.3800
@<TRIPOS>BOND
1     1     2     2
2     2     14    1
3     2     3     am
4     3     4     am
5     3     27    1
6     4     5     2
7     4     6     am
8     6     7     1
9     6     28    1
10    7     8     1
11    7     14    2
12    8     13    ar
13    8     9     ar
14    9     10    ar
15    9     29    1
16    10    11    ar
17    10    30    1
18    11    12    ar
19    11    31    1
20    12    13    ar
21    12    32    1
22    13    33    1
23    14    15    1
24    15    16    1
25    15    34    1
26    15    35    1
27    16    25    ar
28    16    17    ar
29    17    22    ar
30    17    18    ar
31    18    19    ar
32    18    36    1
33    19    20    ar
34    19    37    1
35    20    21    ar
36    20    38    1
37    21    22    ar
38    21    39    1
39    22    23    ar
40    23    24    ar
41    23    40    1
42    24    25    ar
43    24    41    1
44    25    26    1
45    26    42    1
@<TRIPOS>SUBSTRUCTURE
1   ZINC000007996283 1     RESIDUE    1   A     ZIN   1
