@<TRIPOS>MOLECULE
ZINC000019228289
59    62    1     0     0
SMALL
USER_CHARGES
@<TRIPOS>ATOM
1      C1     -0.0184    1.5028    0.0103 C.3      1 ZINC000019228289   -0.1200
2      C2      0.0021   -0.0041    0.0020 C.2      1 ZINC000019228289    0.2400
3      C3     -1.1555   -0.6874    0.0038 C.2      1 ZINC000019228289   -0.2600
4      C4     -2.3795    0.0214    0.0215 C.2      1 ZINC000019228289    0.5200
5      O5     -2.3779    1.2381    0.0349 O.2      1 ZINC000019228289   -0.5200
6      O6     -3.5491   -0.6518    0.0235 O.3      1 ZINC000019228289   -0.3400
7      C7     -4.7464    0.1279    0.0417 C.3      1 ZINC000019228289    0.1100
8      C8     -5.9428   -0.7885    0.0412 C.ar     1 ZINC000019228289   -0.1000
9      C9     -6.4976   -1.2002   -1.1561 C.ar     1 ZINC000019228289   -0.0900
10     C10    -7.5950   -2.0408   -1.1565 C.ar     1 ZINC000019228289   -0.1200
11     C11    -8.1372   -2.4702    0.0403 C.ar     1 ZINC000019228289   -0.1100
12     C12    -7.5818   -2.0593    1.2376 C.ar     1 ZINC000019228289   -0.1200
13     C13    -6.4818   -1.2221    1.2380 C.ar     1 ZINC000019228289   -0.1000
14     C14    -1.1740   -2.1877   -0.0131 C.3      1 ZINC000019228289    0.0700
15     H15    -1.9392   -2.5440    0.6765 H        1 ZINC000019228289    0.1000
16     C16    -1.5025   -2.6629   -1.4050 C.ar     1 ZINC000019228289   -0.0100
17     C17    -0.6779   -2.3273   -2.4625 C.ar     1 ZINC000019228289   -0.1100
18     C18    -0.9792   -2.7631   -3.7393 C.ar     1 ZINC000019228289   -0.0600
19     C19    -2.1049   -3.5350   -3.9584 C.ar     1 ZINC000019228289   -0.0500
20     N20    -2.4278   -4.0013   -5.3256 N.pl3    1 ZINC000019228289    0.0300
21     O21    -1.7017   -3.7049   -6.2576 O.2      1 ZINC000019228289   -0.1600
22     O22    -3.4196   -4.6813   -5.5188 O.2      1 ZINC000019228289   -0.1600
23     C23    -2.9287   -3.8717   -2.9007 C.ar     1 ZINC000019228289   -0.0500
24     C24    -2.6253   -3.4390   -1.6233 C.ar     1 ZINC000019228289   -0.0900
25     C25     0.1637   -2.7497    0.3981 C.2      1 ZINC000019228289   -0.2700
26     C26     1.2716   -1.9790    0.3760 C.2      1 ZINC000019228289    0.2200
27     C27     2.6152   -2.5380    0.7738 C.3      1 ZINC000019228289   -0.0900
28     C28     2.4255   -3.6316    1.8273 C.3      1 ZINC000019228289   -0.0500
29     C29     3.7834   -4.2347    2.1924 C.3      1 ZINC000019228289   -0.1400
30     C30     1.7756   -3.0342    3.0770 C.3      1 ZINC000019228289   -0.1500
31     C31     1.5198   -4.7197    1.2412 C.3      1 ZINC000019228289   -0.1600
32     C32     0.2230   -4.0943    0.8048 C.2      1 ZINC000019228289    0.4000
33     O33    -0.7914   -4.7631    0.8042 O.2      1 ZINC000019228289   -0.4600
34     N34     1.1975   -0.6666   -0.0130 N.pl3    1 ZINC000019228289   -0.6300
35     H35     1.0042    1.8801    0.0026 H        1 ZINC000019228289    0.0700
36     H36    -0.5455    1.8639   -0.8728 H        1 ZINC000019228289    0.1000
37     H37    -0.5286    1.8543    0.9071 H        1 ZINC000019228289    0.1100
38     H38    -4.7633    0.7469    0.9387 H        1 ZINC000019228289    0.0800
39     H39    -4.7776    0.7665   -0.8411 H        1 ZINC000019228289    0.0800
40     H40    -6.0740   -0.8647   -2.0912 H        1 ZINC000019228289    0.1200
41     H41    -8.0289   -2.3618   -2.0920 H        1 ZINC000019228289    0.1300
42     H42    -8.9950   -3.1264    0.0400 H        1 ZINC000019228289    0.1300
43     H43    -8.0057   -2.3945    2.1727 H        1 ZINC000019228289    0.1300
44     H44    -6.0479   -0.9010    2.1735 H        1 ZINC000019228289    0.1200
45     H45     0.2016   -1.7242   -2.2913 H        1 ZINC000019228289    0.1300
46     H46    -0.3354   -2.5003   -4.5656 H        1 ZINC000019228289    0.1500
47     H47    -3.8080   -4.4750   -3.0719 H        1 ZINC000019228289    0.1500
48     H48    -3.2689   -3.7021   -0.7970 H        1 ZINC000019228289    0.1500
49     H49     3.1066   -2.9600   -0.1029 H        1 ZINC000019228289    0.1000
50     H50     3.2326   -1.7400    1.1862 H        1 ZINC000019228289    0.0900
51     H51     4.4314   -3.4550    2.5928 H        1 ZINC000019228289    0.0600
52     H52     3.6452   -5.0131    2.9428 H        1 ZINC000019228289    0.0700
53     H53     4.2408   -4.6656    1.3019 H        1 ZINC000019228289    0.0600
54     H54     0.8056   -2.6115    2.8153 H        1 ZINC000019228289    0.0600
55     H55     1.6417   -3.8151    3.8255 H        1 ZINC000019228289    0.0700
56     H56     2.4166   -2.2503    3.4804 H        1 ZINC000019228289    0.0600
57     H57     2.0101   -5.1793    0.3831 H        1 ZINC000019228289    0.1000
58     H58     1.3223   -5.4774    1.9995 H        1 ZINC000019228289    0.1000
59     H59     2.0019   -0.2030   -0.2940 H        1 ZINC000019228289    0.4200
@<TRIPOS>BOND
1     1     2     1
2     1     35    1
3     1     36    1
4     1     37    1
5     2     34    1
6     2     3     2
7     3     4     1
8     3     14    1
9     4     5     2
10    4     6     1
11    6     7     1
12    7     8     1
13    7     38    1
14    7     39    1
15    8     13    ar
16    8     9     ar
17    9     10    ar
18    9     40    1
19    10    11    ar
20    10    41    1
21    11    12    ar
22    11    42    1
23    12    13    ar
24    12    43    1
25    13    44    1
26    14    15    1
27    14    16    1
28    14    25    1
29    16    24    ar
30    16    17    ar
31    17    18    ar
32    17    45    1
33    18    19    ar
34    18    46    1
35    19    20    1
36    19    23    ar
37    20    21    2
38    20    22    2
39    23    24    ar
40    23    47    1
41    24    48    1
42    25    32    1
43    25    26    2
44    26    27    1
45    26    34    1
46    27    28    1
47    27    49    1
48    27    50    1
49    28    29    1
50    28    30    1
51    28    31    1
52    29    51    1
53    29    52    1
54    29    53    1
55    30    54    1
56    30    55    1
57    30    56    1
58    31    32    1
59    31    57    1
60    31    58    1
61    32    33    2
62    34    59    1
@<TRIPOS>SUBSTRUCTURE
1   ZINC000019228289 1     RESIDUE    1   A     ZIN   1
