@<TRIPOS>MOLECULE
ZINC000018095703
  24   25    0    0    0
SMALL
USER_CHARGES
NO_NAME
@<TRIPOS>ATOM
    1 O1        0.0021    -0.0041     0.0020 O.2    1 <0>      -0.4300
    2 C2       -0.0144     1.2083     0.0087 C.2    1 <0>       0.4200
    3 C3        1.2803     1.9795     0.0005 C.3    1 <0>      -0.1800
    4 S4        2.6749     0.8196    -0.0191 S.3    1 <0>       0.0900
    5 C5        4.0774     1.8862    -0.0267 C.2    1 <0>       0.2000
    6 N6        4.0401     3.1981    -0.0136 N.2    1 <0>      -0.3200
    7 N7        5.3727     3.6411    -0.0255 N.pl3  1 <0>      -0.4800
    8 C8        6.1407     2.5389    -0.0455 C.2    1 <0>       0.2800
    9 N9        5.3549     1.4924    -0.0411 N.2    1 <0>      -0.5200
   10 C10      -1.2987     1.9268     0.0187 C.ar   1 <0>      -0.1700
   11 C11      -1.3219     3.3251     0.0205 C.ar   1 <0>      -0.0700
   12 C12      -2.5293     3.9909     0.0294 C.ar   1 <0>      -0.1300
   13 C13      -3.7162     3.2791     0.0370 C.ar   1 <0>      -0.0800
   14 C14      -3.7016     1.8951     0.0352 C.ar   1 <0>      -0.1300
   15 C15      -2.5024     1.2147     0.0205 C.ar   1 <0>      -0.0600
   16 H16       1.3211     2.6117    -0.8866 H      1 <0>       0.1300
   17 H17       1.3381     2.6021     0.8933 H      1 <0>       0.1300
   18 H18       5.6785     4.5616    -0.0206 H      1 <0>       0.4400
   19 H19       7.2205     2.5198    -0.0588 H      1 <0>       0.2300
   20 H20      -0.3965     3.8820     0.0154 H      1 <0>       0.1300
   21 H21      -2.5489     5.0708     0.0309 H      1 <0>       0.1300
   22 H22      -4.6588     3.8063     0.0447 H      1 <0>       0.1300
   23 H23      -4.6320     1.3467     0.0415 H      1 <0>       0.1300
   24 H24      -2.4926     0.1348     0.0188 H      1 <0>       0.1400
@<TRIPOS>BOND
   1    1    2 2
   2    2    3 1
   3    2   10 1
   4    3    4 1
   5    3   16 1
   6    3   17 1
   7    4    5 1
   8    5    9 1
   9    5    6 2
  10    6    7 1
  11    7    8 1
  12    7   18 1
  13    8    9 2
  14    8   19 1
  15   10   15 ar
  16   10   11 ar
  17   11   12 ar
  18   11   20 1
  19   12   13 ar
  20   12   21 1
  21   13   14 ar
  22   13   22 1
  23   14   15 ar
  24   14   23 1
  25   15   24 1
