@<TRIPOS>MOLECULE
ZINC000000295638
28    28    1     0     0
SMALL
USER_CHARGES
@<TRIPOS>ATOM
1      C1     -0.0187    1.5258    0.0104 C.3      1 ZINC000000295638   -0.1600
2      C2      0.0021   -0.0041    0.0020 C.3      1 ZINC000000295638    0.0500
3      O3      0.6932   -0.4774    1.1597 O.3      1 ZINC000000295638   -0.3100
4      C4      0.8020   -1.8242    1.3057 C.ar     1 ZINC000000295638    0.1700
5      C5      0.2597   -2.6726    0.3512 C.ar     1 ZINC000000295638   -0.2000
6      C6      0.3721   -4.0412    0.5016 C.ar     1 ZINC000000295638   -0.0400
7      C7      1.0238   -4.5657    1.6025 C.ar     1 ZINC000000295638   -0.2000
8      C8      1.1444   -6.0591    1.7643 C.3      1 ZINC000000295638    0.0900
9      H9      0.3892   -6.5530    1.1529 H        1 ZINC000000295638    0.1500
10     C10     2.5367   -6.5097    1.3177 C.3      1 ZINC000000295638   -0.1800
11     N11     0.9431   -6.4167    3.1748 N.4      1 ZINC000000295638   -0.6400
12     H12     0.0249   -6.1195    3.4694 H        1 ZINC000000295638    0.4400
13     H13     1.0239   -7.4166    3.2832 H        1 ZINC000000295638    0.4400
14     H14     1.6422   -5.9595    3.7408 H        1 ZINC000000295638    0.4300
15     C15     1.5655   -3.7223    2.5549 C.ar     1 ZINC000000295638   -0.0800
16     C16     1.4604   -2.3529    2.4064 C.ar     1 ZINC000000295638   -0.1400
17     H17     1.0039    1.9031    0.0027 H        1 ZINC000000295638    0.0700
18     H18    -0.5459    1.8868   -0.8726 H        1 ZINC000000295638    0.0900
19     H19    -0.5289    1.8773    0.9072 H        1 ZINC000000295638    0.0700
20     H20    -1.0205   -0.3814    0.0098 H        1 ZINC000000295638    0.0700
21     H21     0.5123   -0.3556   -0.8948 H        1 ZINC000000295638    0.0700
22     H22    -0.2501   -2.2634   -0.5084 H        1 ZINC000000295638    0.1400
23     H23    -0.0499   -4.7020   -0.2411 H        1 ZINC000000295638    0.1400
24     H24     3.2919   -6.0158    1.9291 H        1 ZINC000000295638    0.0800
25     H25     2.6239   -7.5899    1.4347 H        1 ZINC000000295638    0.0800
26     H26     2.6861   -6.2444    0.2711 H        1 ZINC000000295638    0.1100
27     H27     2.0744   -4.1344    3.4137 H        1 ZINC000000295638    0.1300
28     H28     1.8837   -1.6945    3.1506 H        1 ZINC000000295638    0.1400
@<TRIPOS>BOND
1     1     2     1
2     1     17    1
3     1     18    1
4     1     19    1
5     2     3     1
6     2     20    1
7     2     21    1
8     3     4     1
9     4     16    ar
10    4     5     ar
11    5     6     ar
12    5     22    1
13    6     7     ar
14    6     23    1
15    7     8     1
16    7     15    ar
17    8     9     1
18    8     10    1
19    8     11    1
20    10    24    1
21    10    25    1
22    10    26    1
23    11    12    1
24    11    13    1
25    11    14    1
26    15    16    ar
27    15    27    1
28    16    28    1
@<TRIPOS>SUBSTRUCTURE
1   ZINC000000295638 1     RESIDUE    1   A     ZIN   1
