@<TRIPOS>MOLECULE
ZINC000000119978
  35   37    0    0    0
SMALL
USER_CHARGES
NO_NAME
@<TRIPOS>ATOM
    1 O1       -0.0164     1.3547     0.0095 O.3    1 <0>      -0.4900
    2 C2        0.0021    -0.0041     0.0020 C.ar   1 <0>       0.1600
    3 C3        0.0058    -0.6918    -1.2020 C.ar   1 <0>      -0.2000
    4 C4        0.0269    -2.0771    -1.2051 C.ar   1 <0>       0.1600
    5 O5        0.0309    -2.7511    -2.3852 O.3    1 <0>      -0.4900
    6 C6        0.0446    -2.7805    -0.0063 C.ar   1 <0>      -0.1900
    7 C7        0.0785    -4.2873    -0.0509 C.3    1 <0>      -0.1000
    8 C8       -0.3431    -4.8530     1.3074 C.3    1 <0>       0.0800
    9 H9       -0.1164    -5.9184     1.3480 H      1 <0>       0.0800
   10 O10      -1.7447    -4.6513     1.4991 O.3    1 <0>      -0.5500
   11 C11       0.4406    -4.1155     2.4006 C.3    1 <0>       0.1500
   12 H12       1.5095    -4.1919     2.2011 H      1 <0>       0.1000
   13 C13       0.1306    -4.7226     3.7447 C.ar   1 <0>      -0.0800
   14 C14      -1.0389    -4.3863     4.3999 C.ar   1 <0>      -0.0600
   15 C15      -1.3278    -4.9403     5.6336 C.ar   1 <0>      -0.1400
   16 C16      -0.4442    -5.8347     6.2151 C.ar   1 <0>       0.0900
   17 O17      -0.7270    -6.3808     7.4281 O.3    1 <0>      -0.4900
   18 C18       0.7334    -6.1737     5.5550 C.ar   1 <0>       0.0800
   19 O19       1.6037    -7.0517     6.1217 O.3    1 <0>      -0.4900
   20 C20       1.0142    -5.6191     4.3171 C.ar   1 <0>      -0.1200
   21 O21       0.0461    -2.7430     2.3894 O.3    1 <0>      -0.2900
   22 C22       0.0364    -2.0947     1.1955 C.ar   1 <0>       0.1800
   23 C23       0.0229    -0.7042     1.1973 C.ar   1 <0>      -0.1800
   24 H24       0.8616     1.7600     0.0033 H      1 <0>       0.4000
   25 H25      -0.0082    -0.1487    -2.1354 H      1 <0>       0.1400
   26 H26       0.9153    -2.9326    -2.7315 H      1 <0>       0.3900
   27 H27      -0.6067    -4.6429    -0.8204 H      1 <0>       0.0900
   28 H28       1.0897    -4.6205    -0.2846 H      1 <0>       0.0900
   29 H29      -2.2985    -5.0773     0.8306 H      1 <0>       0.3800
   30 H30      -1.7286    -3.6891     3.9475 H      1 <0>       0.1400
   31 H31      -2.2420    -4.6753     6.1438 H      1 <0>       0.1400
   32 H32      -1.2246    -7.2085     7.3804 H      1 <0>       0.3900
   33 H33       1.4393    -7.9753     5.8870 H      1 <0>       0.3900
   34 H34       1.9272    -5.8805     3.8028 H      1 <0>       0.1400
   35 H35       0.0241    -0.1677     2.1346 H      1 <0>       0.1400
@<TRIPOS>BOND
   1    1    2 1
   2    1   24 1
   3    2   23 ar
   4    2    3 ar
   5    3    4 ar
   6    3   25 1
   7    4    5 1
   8    4    6 ar
   9    5   26 1
  10    6   22 ar
  11    6    7 1
  12    7    8 1
  13    7   27 1
  14    7   28 1
  15    8    9 1
  16    8   10 1
  17    8   11 1
  18   10   29 1
  19   11   12 1
  20   11   13 1
  21   11   21 1
  22   13   20 ar
  23   13   14 ar
  24   14   15 ar
  25   14   30 1
  26   15   16 ar
  27   15   31 1
  28   16   17 1
  29   16   18 ar
  30   17   32 1
  31   18   19 1
  32   18   20 ar
  33   19   33 1
  34   20   34 1
  35   21   22 1
  36   22   23 ar
  37   23   35 1
