@<TRIPOS>MOLECULE
ZINC000328578212
  34   36    0    0    0
SMALL
USER_CHARGES
NO_NAME
@<TRIPOS>ATOM
    1 C1        0.4843     0.7627     0.5894 C.3    1 <0>      -0.1400
    2 C2        0.1536    -0.6956     0.2659 C.3    1 <0>      -0.0100
    3 C3        0.6692    -1.5970     1.3895 C.3    1 <0>      -0.1500
    4 C4       -1.3395    -0.8558     0.1386 C.2    1 <0>      -0.3300
    5 C5       -1.9084    -1.2428    -1.0664 C.2    1 <0>       0.2400
    6 C6       -1.0487    -1.5041    -2.2448 C.ar   1 <0>      -0.0200
    7 C7       -1.1690    -2.7029    -2.9471 C.ar   1 <0>      -0.0900
    8 C8       -0.3661    -2.9403    -4.0439 C.ar   1 <0>      -0.1300
    9 C9        0.5568    -1.9919    -4.4472 C.ar   1 <0>      -0.1200
   10 C10       0.6808    -0.8008    -3.7546 C.ar   1 <0>      -0.1300
   11 C11      -0.1203    -0.5498    -2.6594 C.ar   1 <0>      -0.1000
   12 N12      -3.2368    -1.3798    -1.1601 N.2    1 <0>      -0.5700
   13 C13      -4.0219    -1.1534    -0.1257 C.2    1 <0>       0.3800
   14 C14      -5.4830    -1.2282     0.0419 C.2    1 <0>      -0.2700
   15 C15      -6.4414    -1.5902    -0.9587 C.1    1 <0>       0.3300
   16 N16      -7.2016    -1.8775    -1.7524 N.1    1 <0>      -0.5000
   17 C17      -5.7487    -0.8818     1.3495 C.2    1 <0>       0.1300
   18 N18      -4.5786    -0.6075     1.9761 N.pl3  1 <0>      -0.3500
   19 N19      -3.5123    -0.7697     1.0847 N.am   1 <0>      -0.3600
   20 C20      -2.1794    -0.6217     1.2380 C.2    1 <0>       0.5500
   21 O21      -1.7126    -0.2873     2.3148 O.2    1 <0>      -0.5600
   22 H22       1.5643     0.8785     0.6814 H      1 <0>       0.0500
   23 H23       0.1170     1.4048    -0.2111 H      1 <0>       0.0400
   24 H24       0.0074     1.0438     1.5284 H      1 <0>       0.0700
   25 H25       0.6305    -0.9767    -0.6731 H      1 <0>       0.0700
   26 H26       1.7491    -1.4811     1.4816 H      1 <0>       0.0400
   27 H27       0.1923    -1.3159     2.3285 H      1 <0>       0.0700
   28 H28       0.4335    -2.6359     1.1591 H      1 <0>       0.0400
   29 H29      -1.8889    -3.4441    -2.6329 H      1 <0>       0.1200
   30 H30      -0.4581    -3.8684    -4.5883 H      1 <0>       0.1200
   31 H31       1.1833    -2.1823    -5.3061 H      1 <0>       0.1200
   32 H32       1.4031    -0.0642    -4.0741 H      1 <0>       0.1200
   33 H33      -0.0229     0.3805    -2.1196 H      1 <0>       0.1300
   34 H34      -6.7288    -0.8365     1.8007 H      1 <0>       0.1800
@<TRIPOS>BOND
   1    1    2 1
   2    1   22 1
   3    1   23 1
   4    1   24 1
   5    2    3 1
   6    2    4 1
   7    2   25 1
   8    3   26 1
   9    3   27 1
  10    3   28 1
  11    4   20 1
  12    4    5 2
  13    5    6 1
  14    5   12 1
  15    6   11 ar
  16    6    7 ar
  17    7    8 ar
  18    7   29 1
  19    8    9 ar
  20    8   30 1
  21    9   10 ar
  22    9   31 1
  23   10   11 ar
  24   10   32 1
  25   11   33 1
  26   12   13 2
  27   13   19 1
  28   13   14 1
  29   14   15 1
  30   14   17 2
  31   15   16 3
  32   17   18 1
  33   17   34 1
  34   18   19 1
  35   19   20 am
  36   20   21 2
