@<TRIPOS>MOLECULE
ZINC000001270317
43    45    1     0     0
SMALL
USER_CHARGES
@<TRIPOS>ATOM
1      C1     -0.8020    1.3482    0.2722 C.2      1 ZINC000001270317   -0.1300
2      C2     -0.5156    0.0735    0.1757 C.2      1 ZINC000001270317   -0.2000
3      C3     -1.6241   -0.9457    0.1183 C.3      1 ZINC000001270317    0.1200
4      N4     -1.4635   -1.7750   -1.0786 N.pl3    1 ZINC000001270317   -0.4500
5      C5     -1.9546   -1.5245   -2.3280 C.2      1 ZINC000001270317    0.1500
6      S6     -2.9130   -0.1280   -2.8137 S.3      1 ZINC000001270317    0.0700
7      C7     -3.1657   -0.5136   -4.5640 C.3      1 ZINC000001270317   -0.1700
8      C8     -3.9856    0.5763   -5.2052 C.2      1 ZINC000001270317    0.4200
9      O9     -4.3621    1.5208   -4.5438 O.2      1 ZINC000001270317   -0.4300
10     C10    -4.3287    0.4947   -6.6308 C.ar     1 ZINC000001270317   -0.1600
11     C11    -3.9002   -0.5971   -7.3946 C.ar     1 ZINC000001270317   -0.0600
12     C12    -4.2234   -0.6710   -8.7313 C.ar     1 ZINC000001270317   -0.1400
13     C13    -4.9740    0.3355   -9.3247 C.ar     1 ZINC000001270317    0.1200
14     O14    -5.2894    0.2570  -10.6427 O.3      1 ZINC000001270317   -0.4900
15     C15    -5.4054    1.4269   -8.5700 C.ar     1 ZINC000001270317    0.0700
16     O16    -6.1411    2.4098   -9.1552 O.3      1 ZINC000001270317   -0.4800
17     C17    -5.0908    1.5066   -7.2288 C.ar     1 ZINC000001270317   -0.0700
18     N18    -1.5789   -2.5192   -3.1008 N.2      1 ZINC000001270317   -0.2900
19     N19    -0.8915   -3.3683   -2.4241 N.2      1 ZINC000001270317   -0.2600
20     C20    -0.7815   -2.9657   -1.1796 C.2      1 ZINC000001270317    0.2200
21     C21    -0.0671   -3.6642   -0.0900 C.ar     1 ZINC000001270317    0.0000
22     C22     0.2385   -5.0207   -0.2092 C.ar     1 ZINC000001270317   -0.0700
23     C23     0.9055   -5.6674    0.8110 C.ar     1 ZINC000001270317   -0.1000
24     C24     1.2715   -4.9745    1.9508 C.ar     1 ZINC000001270317   -0.0900
25     C25     0.9711   -3.6283    2.0763 C.ar     1 ZINC000001270317   -0.0300
26     Cl26    1.4346   -2.7672    3.5106 Cl       1 ZINC000001270317   -0.0600
27     C27     0.3097   -2.9684    1.0599 C.ar     1 ZINC000001270317   -0.1100
28     H28    -0.0076    2.0786    0.3133 H        1 ZINC000001270317    0.1100
29     H29    -1.8328    1.6689    0.3062 H        1 ZINC000001270317    0.1100
30     H30     0.5151   -0.2469    0.1372 H        1 ZINC000001270317    0.1200
31     H31    -1.5835   -1.5770    1.0060 H        1 ZINC000001270317    0.1100
32     H32    -2.5861   -0.4345    0.0798 H        1 ZINC000001270317    0.1100
33     H33    -2.1995   -0.5832   -5.0638 H        1 ZINC000001270317    0.1400
34     H34    -3.6909   -1.4644   -4.6545 H        1 ZINC000001270317    0.1400
35     H35    -3.3160   -1.3812   -6.9359 H        1 ZINC000001270317    0.1400
36     H36    -3.8918   -1.5138   -9.3197 H        1 ZINC000001270317    0.1400
37     H37    -6.1231   -0.1994  -10.8211 H        1 ZINC000001270317    0.4000
38     H38    -7.0958    2.2599   -9.1208 H        1 ZINC000001270317    0.3900
39     H39    -5.4244    2.3507   -6.6436 H        1 ZINC000001270317    0.1500
40     H40    -0.0468   -5.5634   -1.0983 H        1 ZINC000001270317    0.1400
41     H41     1.1420   -6.7172    0.7196 H        1 ZINC000001270317    0.1400
42     H42     1.7934   -5.4854    2.7464 H        1 ZINC000001270317    0.1400
43     H43     0.0757   -1.9187    1.1584 H        1 ZINC000001270317    0.1400
@<TRIPOS>BOND
1     1     2     2
2     1     28    1
3     1     29    1
4     2     3     1
5     2     30    1
6     3     4     1
7     3     31    1
8     3     32    1
9     4     20    1
10    4     5     1
11    5     6     1
12    5     18    2
13    6     7     1
14    7     8     1
15    7     33    1
16    7     34    1
17    8     9     2
18    8     10    1
19    10    17    ar
20    10    11    ar
21    11    12    ar
22    11    35    1
23    12    13    ar
24    12    36    1
25    13    14    1
26    13    15    ar
27    14    37    1
28    15    16    1
29    15    17    ar
30    16    38    1
31    17    39    1
32    18    19    1
33    19    20    2
34    20    21    1
35    21    27    ar
36    21    22    ar
37    22    23    ar
38    22    40    1
39    23    24    ar
40    23    41    1
41    24    25    ar
42    24    42    1
43    25    26    1
44    25    27    ar
45    27    43    1
@<TRIPOS>SUBSTRUCTURE
1   ZINC000001270317 1     RESIDUE    1   A     ZIN   1
