@<TRIPOS>MOLECULE
ZINC000095604390
  50   54    0    0    0
SMALL
USER_CHARGES
NO_NAME
@<TRIPOS>ATOM
    1 O1        0.0021    -0.0041     0.0020 O.2    1 <0>      -0.5300
    2 C2       -0.0144     1.2124     0.0087 C.2    1 <0>       0.7000
    3 N3       -1.1257     1.9717     0.0292 N.am   1 <0>      -0.6200
    4 C4       -0.7446     3.3060     0.0306 C.ar   1 <0>       0.2600
    5 N5       -1.4226     4.4427     0.0463 N.ar   1 <0>      -0.4200
    6 C6       -0.7777     5.5959     0.0425 C.ar   1 <0>       0.0800
    7 C7        0.6155     5.6196     0.0219 C.ar   1 <0>       0.1400
    8 C8        1.3337     6.9163     0.0177 C.ar   1 <0>      -0.0300
    9 C9        2.7222     6.9442    -0.1139 C.ar   1 <0>      -0.0800
   10 C10       3.3894     8.1492    -0.1177 C.ar   1 <0>      -0.0900
   11 C11       2.6770     9.3412     0.0103 C.ar   1 <0>       0.0000
   12 C12       3.3957    10.6386     0.0066 C.2    1 <0>       0.2600
   13 N13       4.6961    10.7944    -0.1159 N.2    1 <0>      -0.3000
   14 N14       4.9433    12.1761    -0.0686 N.pl3  1 <0>      -0.4800
   15 C15       3.7475    12.7737     0.0826 C.2    1 <0>       0.2700
   16 N16       2.8274    11.8468     0.1216 N.2    1 <0>      -0.5300
   17 C17       1.2889     9.3135     0.1413 C.ar   1 <0>      -0.0700
   18 C18       0.6208     8.1090     0.1395 C.ar   1 <0>      -0.1000
   19 N19       1.3023     4.4791     0.0065 N.ar   1 <0>      -0.4200
   20 C20       0.6580     3.3253     0.0099 C.ar   1 <0>       0.2700
   21 N21       1.0760     2.0018     0.0025 N.am   1 <0>      -0.5200
   22 C22       2.4669     1.5422    -0.0107 C.3    1 <0>       0.1300
   23 C23       2.9636     1.3781     1.4271 C.3    1 <0>      -0.1300
   24 C24       4.4162     0.8980     1.4132 C.3    1 <0>      -0.0900
   25 C25       5.3096     1.9856     0.8087 C.3    1 <0>      -0.1500
   26 C26       6.7695     1.5290     0.8711 C.3    1 <0>       0.0600
   27 O27       7.1229     1.2518     2.2277 O.3    1 <0>      -0.3800
   28 C28       6.3523     0.2101     2.8303 C.3    1 <0>       0.0600
   29 C29       4.8756     0.6137     2.8466 C.3    1 <0>      -0.1500
   30 H30      -2.0379     1.6422     0.0408 H      1 <0>       0.4400
   31 H31      -1.3319     6.5228     0.0549 H      1 <0>       0.1900
   32 H32       3.2740     6.0211    -0.2123 H      1 <0>       0.1400
   33 H33       4.4643     8.1709    -0.2196 H      1 <0>       0.1400
   34 H34       5.8067    12.6135    -0.1320 H      1 <0>       0.4500
   35 H35       3.5769    13.8377     0.1553 H      1 <0>       0.2300
   36 H36       0.7374    10.2368     0.2404 H      1 <0>       0.1400
   37 H37      -0.4543     8.0877     0.2406 H      1 <0>       0.1400
   38 H38       2.5283     0.5846    -0.5278 H      1 <0>       0.1000
   39 H39       3.0867     2.2747    -0.5278 H      1 <0>       0.1000
   40 H40       2.9022     2.3356     1.9442 H      1 <0>       0.0700
   41 H41       2.3438     0.6455     1.9442 H      1 <0>       0.0700
   42 H42       4.4939    -0.0119     0.8182 H      1 <0>       0.0800
   43 H43       5.0250     2.1552    -0.2297 H      1 <0>       0.0800
   44 H44       5.1924     2.9096     1.3750 H      1 <0>       0.0800
   45 H45       6.8943     0.6274     0.2715 H      1 <0>       0.0500
   46 H46       7.4138     2.3170     0.4814 H      1 <0>       0.0900
   47 H47       6.4716    -0.7088     2.2563 H      1 <0>       0.0500
   48 H48       6.6961     0.0480     3.8518 H      1 <0>       0.0900
   49 H49       4.7497     1.5100     3.4540 H      1 <0>       0.0700
   50 H50       4.2808    -0.1979     3.2655 H      1 <0>       0.0700
@<TRIPOS>BOND
   1    1    2 2
   2    2   21 am
   3    2    3 am
   4    3    4 1
   5    3   30 1
   6    4   20 ar
   7    4    5 ar
   8    5    6 ar
   9    6    7 ar
  10    6   31 1
  11    7    8 1
  12    7   19 ar
  13    8   18 ar
  14    8    9 ar
  15    9   10 ar
  16    9   32 1
  17   10   11 ar
  18   10   33 1
  19   11   12 1
  20   11   17 ar
  21   12   16 1
  22   12   13 2
  23   13   14 1
  24   14   15 1
  25   14   34 1
  26   15   16 2
  27   15   35 1
  28   17   18 ar
  29   17   36 1
  30   18   37 1
  31   19   20 ar
  32   20   21 1
  33   21   22 1
  34   22   23 1
  35   22   38 1
  36   22   39 1
  37   23   24 1
  38   23   40 1
  39   23   41 1
  40   24   29 1
  41   24   25 1
  42   24   42 1
  43   25   26 1
  44   25   43 1
  45   25   44 1
  46   26   27 1
  47   26   45 1
  48   26   46 1
  49   27   28 1
  50   28   29 1
  51   28   47 1
  52   28   48 1
  53   29   49 1
  54   29   50 1
