@<TRIPOS>MOLECULE
ZINC000001509348
35    37    1     0     0
SMALL
USER_CHARGES
@<TRIPOS>ATOM
1      O1      1.3449    2.0811   -0.3783 O.2      1 ZINC000001509348   -0.9100
2      S2      0.0660    1.4655   -0.3088 S.o2     1 ZINC000001509348    2.5500
3      O3     -0.8201    1.4899   -1.4194 O.2      1 ZINC000001509348   -0.9000
4      C4      0.4191   -0.2444   -0.0720 C.ar     1 ZINC000001509348   -0.6600
5      C5      1.5894   -0.6278    0.5561 C.ar     1 ZINC000001509348   -0.0100
6      C6      1.8668   -1.9689    0.7422 C.ar     1 ZINC000001509348   -0.1300
7      C7      0.9731   -2.9278    0.2996 C.ar     1 ZINC000001509348    0.0200
8      Cl8     1.3207   -4.6125    0.5334 Cl       1 ZINC000001509348   -0.0500
9      C9     -0.1979   -2.5436   -0.3290 C.ar     1 ZINC000001509348   -0.1300
10     C10    -0.4769   -1.2020   -0.5094 C.ar     1 ZINC000001509348   -0.0100
11     C11    -0.7985    1.9633    1.2063 C.3      1 ZINC000001509348   -1.1800
12     S12    -1.5628    3.6079    1.1666 S.o2     1 ZINC000001509348    2.5600
13     O13    -2.9024    3.5466    1.6367 O.2      1 ZINC000001509348   -0.9000
14     O14    -0.6591    4.5897    1.6551 O.2      1 ZINC000001509348   -0.9000
15     C15    -1.7209    3.9779   -0.5489 C.ar     1 ZINC000001509348   -0.7000
16     C16    -0.6984    4.6304   -1.2120 C.ar     1 ZINC000001509348   -0.0200
17     C17    -0.8218    4.9210   -2.5576 C.ar     1 ZINC000001509348   -0.1300
18     C18    -1.9689    4.5587   -3.2409 C.ar     1 ZINC000001509348    0.0300
19     Cl19   -2.1244    4.9228   -4.9311 Cl       1 ZINC000001509348   -0.0500
20     C20    -2.9920    3.9057   -2.5767 C.ar     1 ZINC000001509348   -0.1200
21     C21    -2.8650    3.6107   -1.2324 C.ar     1 ZINC000001509348    0.0200
22     C22    -1.5137    0.8703    2.0030 C.3      1 ZINC000001509348   -0.0700
23     C23    -0.2195    1.4853    2.5394 C.3      1 ZINC000001509348   -0.0700
24     H24     2.2871    0.1209    0.9013 H        1 ZINC000001509348    0.1500
25     H25     2.7813   -2.2683    1.2326 H        1 ZINC000001509348    0.1500
26     H26    -0.8958   -3.2917   -0.6750 H        1 ZINC000001509348    0.1500
27     H27    -1.3912   -0.9019   -0.9998 H        1 ZINC000001509348    0.1600
28     H28     0.1970    4.9135   -0.6784 H        1 ZINC000001509348    0.1600
29     H29    -0.0230    5.4310   -3.0755 H        1 ZINC000001509348    0.1500
30     H30    -3.8878    3.6230   -3.1095 H        1 ZINC000001509348    0.1500
31     H31    -3.6634    3.1007   -0.7138 H        1 ZINC000001509348    0.1500
32     H32    -2.4440    1.1394    2.5034 H        1 ZINC000001509348    0.1400
33     H33    -1.4649   -0.1478    1.6168 H        1 ZINC000001509348    0.1300
34     H34     0.6808    0.8718    2.5061 H        1 ZINC000001509348    0.1300
35     H35    -0.2983    2.1589    3.3927 H        1 ZINC000001509348    0.1300
@<TRIPOS>BOND
1     1     2     2
2     2     3     2
3     2     4     1
4     2     11    1
5     4     10    ar
6     4     5     ar
7     5     6     ar
8     5     24    1
9     6     7     ar
10    6     25    1
11    7     8     1
12    7     9     ar
13    9     10    ar
14    9     26    1
15    10    27    1
16    11    23    1
17    11    12    1
18    11    22    1
19    12    13    2
20    12    14    2
21    12    15    1
22    15    21    ar
23    15    16    ar
24    16    17    ar
25    16    28    1
26    17    18    ar
27    17    29    1
28    18    19    1
29    18    20    ar
30    20    21    ar
31    20    30    1
32    21    31    1
33    22    23    1
34    22    32    1
35    22    33    1
36    23    34    1
37    23    35    1
@<TRIPOS>SUBSTRUCTURE
1   ZINC000001509348 1     RESIDUE    1   A     ZIN   1
