@<TRIPOS>MOLECULE
ZINC000003821016
  57   60    0    0    0
SMALL
USER_CHARGES
NO_NAME
@<TRIPOS>ATOM
    1 C1       -2.2277     1.4353    -1.2125 C.3    1 <0>      -0.1200
    2 C2       -2.1960    -0.0708    -1.2569 C.ar   1 <0>      -0.0300
    3 C3       -1.1134    -0.7217    -1.8150 C.ar   1 <0>      -0.1700
    4 C4       -1.0848    -2.1099    -1.8550 C.ar   1 <0>       0.2100
    5 N5        0.0096    -2.7721    -2.4189 N.pl3  1 <0>      -0.6500
    6 C6        0.1001    -4.1453    -2.3394 C.2    1 <0>       0.4800
    7 C7        0.2071    -4.9135    -3.5108 C.2    1 <0>      -0.2300
    8 C8        0.2252    -4.2848    -4.8311 C.2    1 <0>       0.5800
    9 N9        0.2174    -5.0487    -5.9415 N.am   1 <0>      -0.8400
   10 O10       0.2472    -3.0711    -4.9273 O.2    1 <0>      -0.5400
   11 C11       0.3006    -6.3704    -3.3601 C.2    1 <0>       0.3100
   12 N12       0.4079    -7.3672    -4.2117 N.2    1 <0>      -0.4900
   13 C13       0.4559    -8.5236    -3.5342 C.2    1 <0>       0.0600
   14 C14       0.3770    -8.2548    -2.2166 C.2    1 <0>      -0.1100
   15 N15       0.2777    -6.8902    -2.0878 N.pl3  1 <0>      -0.4400
   16 C16       0.1705    -6.0530    -1.0150 C.2    1 <0>       0.6400
   17 N17       0.1495    -6.5902     0.2433 N.pl3  1 <0>      -0.7100
   18 C18       0.0352    -5.7142     1.4120 C.3    1 <0>       0.1500
   19 H19      -0.6036    -4.8652     1.1685 H      1 <0>       0.1300
   20 C20       1.4240    -5.2101     1.8093 C.3    1 <0>      -0.1300
   21 C21       2.3207    -6.4019     2.1510 C.3    1 <0>      -0.1300
   22 C22       1.7090    -7.1828     3.3159 C.3    1 <0>      -0.1200
   23 C23       0.3202    -7.6869     2.9185 C.3    1 <0>      -0.1400
   24 C24      -0.5764    -6.4952     2.5768 C.3    1 <0>       0.0200
   25 H25      -0.6615    -5.8434     3.4464 H      1 <0>       0.1700
   26 N26      -1.9099    -6.9792     2.1954 N.4    1 <0>      -0.6400
   27 H27      -2.3133    -7.4942     2.9636 H      1 <0>       0.4400
   28 H28      -2.5012    -6.1932     1.9700 H      1 <0>       0.4400
   29 H29      -1.8312    -7.5825     1.3905 H      1 <0>       0.4300
   30 N30       0.0919    -4.7487    -1.1495 N.2    1 <0>      -0.5600
   31 C31      -2.1460    -2.8387    -1.3331 C.ar   1 <0>      -0.1800
   32 C32      -3.2254    -2.1815    -0.7764 C.ar   1 <0>      -0.0500
   33 C33      -4.3769    -2.9713    -0.2095 C.3    1 <0>      -0.1100
   34 C34      -3.2483    -0.7994    -0.7334 C.ar   1 <0>      -0.1600
   35 H35      -1.7682     1.7813    -0.2866 H      1 <0>       0.0700
   36 H36      -1.6763     1.8355    -2.0634 H      1 <0>       0.0700
   37 H37      -3.2614     1.7783    -1.2555 H      1 <0>       0.0700
   38 H38      -0.2902    -0.1521    -2.2202 H      1 <0>       0.1300
   39 H39       0.7053    -2.2652    -2.8661 H      1 <0>       0.4300
   40 H40       0.1999    -6.0155    -5.8649 H      1 <0>       0.4100
   41 H41       0.2294    -4.6317    -6.8172 H      1 <0>       0.4100
   42 H42       0.5433    -9.5069    -3.9722 H      1 <0>       0.1900
   43 H43       0.3891    -8.9760    -1.4127 H      1 <0>       0.1900
   44 H44       0.2103    -7.5511     0.3615 H      1 <0>       0.4100
   45 H45       1.8598    -4.6538     0.9794 H      1 <0>       0.0900
   46 H46       1.3390    -4.5584     2.6788 H      1 <0>       0.0900
   47 H47       2.4057    -7.0536     1.2815 H      1 <0>       0.0700
   48 H48       3.3101    -6.0428     2.4340 H      1 <0>       0.0800
   49 H49       2.3478    -8.0318     3.5593 H      1 <0>       0.0900
   50 H50       1.6240    -6.5310     4.1854 H      1 <0>       0.0800
   51 H51       0.4052    -8.3387     2.0490 H      1 <0>       0.0800
   52 H52      -0.1156    -8.2433     3.7484 H      1 <0>       0.1000
   53 H53      -2.1270    -3.9182    -1.3630 H      1 <0>       0.1100
   54 H54      -4.1915    -3.1783     0.8445 H      1 <0>       0.0600
   55 H55      -5.2970    -2.3956    -0.3104 H      1 <0>       0.0700
   56 H56      -4.4750    -3.9112    -0.7526 H      1 <0>       0.0600
   57 H57      -4.0937    -0.2879    -0.2975 H      1 <0>       0.1200
@<TRIPOS>BOND
   1    1    2 1
   2    1   35 1
   3    1   36 1
   4    1   37 1
   5    2   34 ar
   6    2    3 ar
   7    3    4 ar
   8    3   38 1
   9    4    5 1
  10    4   31 ar
  11    5    6 1
  12    5   39 1
  13    6   30 1
  14    6    7 2
  15    7    8 1
  16    7   11 1
  17    8    9 am
  18    8   10 2
  19    9   40 1
  20    9   41 1
  21   11   15 1
  22   11   12 2
  23   12   13 1
  24   13   14 2
  25   13   42 1
  26   14   15 1
  27   14   43 1
  28   15   16 1
  29   16   17 1
  30   16   30 2
  31   17   18 1
  32   17   44 1
  33   18   19 1
  34   18   24 1
  35   18   20 1
  36   20   21 1
  37   20   45 1
  38   20   46 1
  39   21   22 1
  40   21   47 1
  41   21   48 1
  42   22   23 1
  43   22   49 1
  44   22   50 1
  45   23   24 1
  46   23   51 1
  47   23   52 1
  48   24   25 1
  49   24   26 1
  50   26   27 1
  51   26   28 1
  52   26   29 1
  53   31   32 ar
  54   31   53 1
  55   32   33 1
  56   32   34 ar
  57   33   54 1
  58   33   55 1
  59   33   56 1
  60   34   57 1
