@<TRIPOS>MOLECULE
ZINC000001530833
  49   51    0    0    0
SMALL
USER_CHARGES
NO_NAME
@<TRIPOS>ATOM
    1 C1       -0.0187     1.5258     0.0104 C.3    1 <0>      -0.1500
    2 C2        0.0021    -0.0041     0.0020 C.3    1 <0>      -0.1300
    3 C3        0.7182    -0.4975    -1.2568 C.3    1 <0>      -0.1200
    4 C4        0.7390    -2.0273    -1.2652 C.3    1 <0>      -0.1100
    5 C5        1.4551    -2.5207    -2.5240 C.3    1 <0>      -0.0800
    6 C6        1.4755    -4.0276    -2.5323 C.ar   1 <0>      -0.0300
    7 C7        2.5275    -4.7015    -1.9406 C.ar   1 <0>      -0.1700
    8 C8        2.5566    -6.0891    -1.9453 C.ar   1 <0>       0.1500
    9 O9        3.5897    -6.7538    -1.3655 O.3    1 <0>      -0.4900
   10 C10       1.5192    -6.7945    -2.5482 C.ar   1 <0>      -0.1500
   11 C11       0.4524    -6.1076    -3.1433 C.ar   1 <0>       0.1600
   12 C12       0.4386    -4.7238    -3.1270 C.ar   1 <0>      -0.1500
   13 O13      -0.5567    -6.8098    -3.7164 O.3    1 <0>      -0.3000
   14 C14      -0.2407    -8.0393    -4.3695 C.3    1 <0>       0.1600
   15 C15      -1.5349    -8.7898    -4.6901 C.3    1 <0>      -0.1400
   16 C16       0.5089    -7.7439    -5.6701 C.3    1 <0>      -0.1700
   17 C17       0.6248    -8.8945    -3.4823 C.ar   1 <0>      -0.1200
   18 C18       0.5658   -10.2690    -3.5393 C.ar   1 <0>      -0.1000
   19 C19       1.3780   -11.0298    -2.7153 C.ar   1 <0>      -0.1200
   20 C20       2.2513   -10.4195    -1.8335 C.ar   1 <0>      -0.0800
   21 C21       3.1318   -11.2596    -0.9447 C.3    1 <0>      -0.1200
   22 C22       2.3185    -9.0403    -1.7659 C.ar   1 <0>      -0.1100
   23 C23       1.5030    -8.2749    -2.5877 C.ar   1 <0>      -0.0200
   24 H24       1.0039     1.9031     0.0027 H      1 <0>       0.0500
   25 H25      -0.5459     1.8868    -0.8726 H      1 <0>       0.0500
   26 H26      -0.5289     1.8773     0.9072 H      1 <0>       0.0500
   27 H27       0.5293    -0.3651     0.8851 H      1 <0>       0.0600
   28 H28      -1.0205    -0.3814     0.0098 H      1 <0>       0.0600
   29 H29       0.1910    -0.1364    -2.1398 H      1 <0>       0.0600
   30 H30       1.7408    -0.1202    -1.2645 H      1 <0>       0.0600
   31 H31       1.2661    -2.3884    -0.3821 H      1 <0>       0.0600
   32 H32      -0.2836    -2.4046    -1.2575 H      1 <0>       0.0700
   33 H33       0.9279    -2.1597    -3.4071 H      1 <0>       0.0800
   34 H34       2.4777    -2.1435    -2.5317 H      1 <0>       0.0800
   35 H35       3.3284    -4.1471    -1.4741 H      1 <0>       0.1300
   36 H36       3.4507    -6.9580    -0.4306 H      1 <0>       0.3900
   37 H37      -0.3783    -4.1870    -3.5863 H      1 <0>       0.1400
   38 H38      -2.1567    -8.1788    -5.3444 H      1 <0>       0.0700
   39 H39      -1.2962    -9.7291    -5.1889 H      1 <0>       0.0800
   40 H40      -2.0738    -8.9962    -3.7654 H      1 <0>       0.0700
   41 H41       1.4286    -7.2040    -5.4448 H      1 <0>       0.0600
   42 H42       0.7513    -8.6813    -6.1707 H      1 <0>       0.0800
   43 H43      -0.1191    -7.1361    -6.3215 H      1 <0>       0.0700
   44 H44      -0.1133   -10.7531    -4.2254 H      1 <0>       0.1300
   45 H45       1.3290   -12.1077    -2.7614 H      1 <0>       0.1300
   46 H46       4.0743   -11.4619    -1.4536 H      1 <0>       0.0700
   47 H47       3.3281   -10.7234    -0.0162 H      1 <0>       0.0700
   48 H48       2.6300   -12.2011    -0.7214 H      1 <0>       0.0700
   49 H49       3.0001    -8.5620    -1.0782 H      1 <0>       0.1400
@<TRIPOS>BOND
   1    1    2 1
   2    1   24 1
   3    1   25 1
   4    1   26 1
   5    2    3 1
   6    2   27 1
   7    2   28 1
   8    3    4 1
   9    3   29 1
  10    3   30 1
  11    4    5 1
  12    4   31 1
  13    4   32 1
  14    5    6 1
  15    5   33 1
  16    5   34 1
  17    6   12 ar
  18    6    7 ar
  19    7    8 ar
  20    7   35 1
  21    8    9 1
  22    8   10 ar
  23    9   36 1
  24   10   23 1
  25   10   11 ar
  26   11   12 ar
  27   11   13 1
  28   12   37 1
  29   13   14 1
  30   14   15 1
  31   14   16 1
  32   14   17 1
  33   15   38 1
  34   15   39 1
  35   15   40 1
  36   16   41 1
  37   16   42 1
  38   16   43 1
  39   17   23 ar
  40   17   18 ar
  41   18   19 ar
  42   18   44 1
  43   19   20 ar
  44   19   45 1
  45   20   21 1
  46   20   22 ar
  47   21   46 1
  48   21   47 1
  49   21   48 1
  50   22   23 ar
  51   22   49 1
