@<TRIPOS>MOLECULE
ZINC000001486389
46    48    1     0     0
SMALL
USER_CHARGES
@<TRIPOS>ATOM
1      C1     -0.0173    1.4248    0.0099 C.3      1 ZINC000001486389    0.0200
2      O2      0.0021   -0.0041    0.0020 O.3      1 ZINC000001486389   -0.2800
3      C3      0.6047   -0.6060   -1.0538 C.ar     1 ZINC000001486389    0.1800
4      C4      1.1722    0.1595   -2.0611 C.ar     1 ZINC000001486389   -0.2200
5      C5      1.7849   -0.4547   -3.1356 C.ar     1 ZINC000001486389   -0.0200
6      C6      1.8382   -1.8364   -3.2160 C.ar     1 ZINC000001486389   -0.1200
7      C7      2.5098   -2.4939   -4.3940 C.3      1 ZINC000001486389   -0.0400
8      C8      3.9919   -2.7094   -4.0811 C.3      1 ZINC000001486389   -0.0900
9      H9      4.1112   -3.2631   -3.1498 H        1 ZINC000001486389    0.1100
10     S10     4.8731   -1.1136   -4.0005 S.3      1 ZINC000001486389   -0.4000
11     C11     5.9612   -1.4959   -5.3468 C.2      1 ZINC000001486389    0.5800
12     O12     6.8320   -0.7740   -5.7926 O.2      1 ZINC000001486389   -0.5100
13     N13     5.6523   -2.7189   -5.7829 N.pl3    1 ZINC000001486389   -0.7200
14     C14     4.6808   -3.4262   -5.2217 C.2      1 ZINC000001486389    0.5200
15     O15     4.3737   -4.5393   -5.5914 O.2      1 ZINC000001486389   -0.5400
16     C16     1.2800   -2.6127   -2.2233 C.ar     1 ZINC000001486389   -0.0400
17     C17     0.6615   -2.0046   -1.1286 C.ar     1 ZINC000001486389   -0.1800
18     C18     0.0625   -2.8296   -0.0621 C.2      1 ZINC000001486389    0.5700
19     O19    -0.4751   -2.2965    0.8893 O.2      1 ZINC000001486389   -0.5200
20     N20     0.1111   -4.1741   -0.1426 N.am     1 ZINC000001486389   -0.7300
21     C21    -0.4837   -4.9932    0.9164 C.3      1 ZINC000001486389    0.1600
22     C22    -0.2954   -6.4520    0.5886 C.ar     1 ZINC000001486389   -0.0800
23     C23    -1.2492   -7.1222   -0.1543 C.ar     1 ZINC000001486389   -0.1000
24     C24    -1.0765   -8.4604   -0.4550 C.ar     1 ZINC000001486389   -0.0700
25     C25     0.0503   -9.1282   -0.0131 C.ar     1 ZINC000001486389   -0.1800
26     C26     0.2383  -10.5872   -0.3404 C.3      1 ZINC000001486389    0.5100
27     F27     0.9277  -10.7082   -1.5518 F        1 ZINC000001486389   -0.1700
28     F28     0.9738  -11.2026    0.6782 F        1 ZINC000001486389   -0.1800
29     F29    -1.0119  -11.2051   -0.4516 F        1 ZINC000001486389   -0.1800
30     C30     1.0048   -8.4577    0.7287 C.ar     1 ZINC000001486389   -0.0700
31     C31     0.8339   -7.1186    1.0261 C.ar     1 ZINC000001486389   -0.1000
32     H32     1.0053    1.8021    0.0021 H        1 ZINC000001486389    0.0600
33     H33    -0.5445    1.7859   -0.8732 H        1 ZINC000001486389    0.0500
34     H34    -0.5275    1.7763    0.9067 H        1 ZINC000001486389    0.1000
35     H35     1.1347    1.2374   -2.0055 H        1 ZINC000001486389    0.1300
36     H36     2.2249    0.1459   -3.9180 H        1 ZINC000001486389    0.1400
37     H37     2.0366   -3.4557   -4.5918 H        1 ZINC000001486389    0.0900
38     H38     2.4130   -1.8541   -5.2711 H        1 ZINC000001486389    0.0800
39     H39     1.3239   -3.6898   -2.2901 H        1 ZINC000001486389    0.1300
40     H40     0.5400   -4.5993   -0.9016 H        1 ZINC000001486389    0.4000
41     H41     0.0022   -4.7685    1.8659 H        1 ZINC000001486389    0.0800
42     H42    -1.5484   -4.7723    0.9919 H        1 ZINC000001486389    0.0800
43     H43    -2.1295   -6.6005   -0.4995 H        1 ZINC000001486389    0.1400
44     H44    -1.8220   -8.9842   -1.0348 H        1 ZINC000001486389    0.1400
45     H45     1.8853   -8.9794    1.0736 H        1 ZINC000001486389    0.1400
46     H46     1.5796   -6.5947    1.6056 H        1 ZINC000001486389    0.1400
@<TRIPOS>BOND
1     1     2     1
2     1     32    1
3     1     33    1
4     1     34    1
5     2     3     1
6     3     17    ar
7     3     4     ar
8     4     5     ar
9     4     35    1
10    5     6     ar
11    5     36    1
12    6     7     1
13    6     16    ar
14    7     8     1
15    7     37    1
16    7     38    1
17    8     9     1
18    8     14    1
19    8     10    1
20    10    11    1
21    11    12    2
22    11    13    1
23    13    14    1
24    14    15    2
25    16    17    ar
26    16    39    1
27    17    18    1
28    18    19    2
29    18    20    am
30    20    21    1
31    20    40    1
32    21    22    1
33    21    41    1
34    21    42    1
35    22    31    ar
36    22    23    ar
37    23    24    ar
38    23    43    1
39    24    25    ar
40    24    44    1
41    25    26    1
42    25    30    ar
43    26    27    1
44    26    28    1
45    26    29    1
46    30    31    ar
47    30    45    1
48    31    46    1
@<TRIPOS>SUBSTRUCTURE
1   ZINC000001486389 1     RESIDUE    1   A     ZIN   1
