@<TRIPOS>MOLECULE
ZINC000028821340
60    64    1     0     0
SMALL
USER_CHARGES
@<TRIPOS>ATOM
1      C1     -0.3207    1.4662    0.1510 C.3      1 ZINC000028821340    0.0200
2      N2     -0.2906   -0.0024    0.1400 N.3      1 ZINC000028821340   -0.5400
3      C3     -1.6503   -0.5575    0.1972 C.3      1 ZINC000028821340    0.0200
4      C4     -1.5782   -2.0843    0.1236 C.3      1 ZINC000028821340    0.0000
5      N5     -0.7762   -2.5914    1.2449 N.4      1 ZINC000028821340   -0.3900
6      H6     -1.1983   -2.3065    2.1159 H        1 ZINC000028821340    0.4200
7      C7     -0.7221   -4.0581    1.1839 C.3      1 ZINC000028821340   -0.0100
8      C8      0.0066   -4.5933    2.4181 C.3      1 ZINC000028821340   -0.0900
9      C9      0.0621   -6.0980    2.3556 C.ar     1 ZINC000028821340   -0.1300
10     C10    -0.9576   -6.8497    2.9101 C.ar     1 ZINC000028821340   -0.0900
11     C11    -0.9096   -8.2288    2.8549 C.ar     1 ZINC000028821340   -0.1100
12     C12     0.1643   -8.8607    2.2411 C.ar     1 ZINC000028821340    0.1900
13     N13     0.2159  -10.2567    2.1831 N.pl3    1 ZINC000028821340   -0.6400
14     C14    -0.9554  -10.9894    2.0736 C.ar     1 ZINC000028821340    0.5600
15     N15    -2.1043  -10.3491    1.9148 N.ar     1 ZINC000028821340   -0.5500
16     C16    -3.2463  -11.0121    1.8057 C.ar     1 ZINC000028821340    0.2000
17     C17    -3.2344  -12.3933    1.8589 C.ar     1 ZINC000028821340   -0.1900
18     Cl18   -4.7078  -13.3008    1.7195 Cl       1 ZINC000028821340   -0.0300
19     C19    -2.0049  -13.0435    2.0274 C.ar     1 ZINC000028821340    0.3300
20     C20    -1.9379  -14.5194    2.0901 C.2      1 ZINC000028821340   -0.1700
21     C21    -2.5311  -15.3954    1.2388 C.2      1 ZINC000028821340    0.1200
22     N22    -2.2429  -16.6714    1.6162 N.pl3    1 ZINC000028821340   -0.5800
23     C23    -1.4431  -16.6677    2.7392 C.ar     1 ZINC000028821340    0.0900
24     C24    -0.8790  -17.6784    3.5105 C.ar     1 ZINC000028821340   -0.1200
25     C25    -0.1051  -17.3577    4.6044 C.ar     1 ZINC000028821340   -0.1000
26     C26     0.1194  -16.0322    4.9477 C.ar     1 ZINC000028821340   -0.1400
27     C27    -0.4306  -15.0166    4.1973 C.ar     1 ZINC000028821340   -0.0700
28     C28    -1.2098  -15.3257    3.0841 C.ar     1 ZINC000028821340   -0.0700
29     N29    -0.8962  -12.3108    2.1250 N.ar     1 ZINC000028821340   -0.5400
30     C30     1.1867   -8.1027    1.6847 C.ar     1 ZINC000028821340   -0.1500
31     C31     1.1299   -6.7239    1.7388 C.ar     1 ZINC000028821340   -0.0800
32     C32     0.5857   -2.0478    1.1602 C.3      1 ZINC000028821340   -0.0100
33     C33     0.5316   -0.5207    1.2424 C.3      1 ZINC000028821340    0.0200
34     H34     0.6932    1.8512    0.0418 H        1 ZINC000028821340    0.0800
35     H35    -0.9359    1.8233   -0.6749 H        1 ZINC000028821340    0.0800
36     H36    -0.7417    1.8139    1.0944 H        1 ZINC000028821340    0.0400
37     H37    -2.1253   -0.2605    1.1322 H        1 ZINC000028821340    0.0600
38     H38    -2.2329   -0.1800   -0.6431 H        1 ZINC000028821340    0.1200
39     H39    -2.5848   -2.4987    0.1803 H        1 ZINC000028821340    0.1400
40     H40    -1.1156   -2.3812   -0.8176 H        1 ZINC000028821340    0.1400
41     H41    -1.7356   -4.4584    1.1583 H        1 ZINC000028821340    0.1300
42     H42    -0.1875   -4.3649    0.2849 H        1 ZINC000028821340    0.1300
43     H43     1.0201   -4.1931    2.4437 H        1 ZINC000028821340    0.0900
44     H44    -0.5280   -4.2866    3.3172 H        1 ZINC000028821340    0.0900
45     H45    -1.7923   -6.3577    3.3872 H        1 ZINC000028821340    0.1300
46     H46    -1.7060   -8.8152    3.2887 H        1 ZINC000028821340    0.1400
47     H47     1.0714  -10.7123    2.2194 H        1 ZINC000028821340    0.4300
48     H48    -4.1767  -10.4789    1.6770 H        1 ZINC000028821340    0.1800
49     H49    -3.1403  -15.1211    0.3902 H        1 ZINC000028821340    0.1800
50     H50    -2.5557  -17.4686    1.1607 H        1 ZINC000028821340    0.4200
51     H51    -1.0476  -18.7135    3.2523 H        1 ZINC000028821340    0.1200
52     H52     0.3307  -18.1457    5.2006 H        1 ZINC000028821340    0.1300
53     H53     0.7281  -15.7957    5.8079 H        1 ZINC000028821340    0.1300
54     H54    -0.2548  -13.9858    4.4673 H        1 ZINC000028821340    0.1200
55     H55     2.0233   -8.5910    1.2071 H        1 ZINC000028821340    0.1300
56     H56     1.9245   -6.1339    1.3064 H        1 ZINC000028821340    0.1300
57     H57     1.1834   -2.4351    1.9854 H        1 ZINC000028821340    0.1400
58     H58     1.0373   -2.3449    0.2137 H        1 ZINC000028821340    0.1400
59     H59     1.5408   -0.1164    1.1647 H        1 ZINC000028821340    0.1200
60     H60     0.0925   -0.2231    2.1947 H        1 ZINC000028821340    0.0600
@<TRIPOS>BOND
1     1     2     1
2     1     34    1
3     1     35    1
4     1     36    1
5     2     33    1
6     2     3     1
7     3     4     1
8     3     37    1
9     3     38    1
10    4     5     1
11    4     39    1
12    4     40    1
13    5     6     1
14    5     7     1
15    5     32    1
16    7     8     1
17    7     41    1
18    7     42    1
19    8     9     1
20    8     43    1
21    8     44    1
22    9     31    ar
23    9     10    ar
24    10    11    ar
25    10    45    1
26    11    12    ar
27    11    46    1
28    12    13    1
29    12    30    ar
30    13    14    1
31    13    47    1
32    14    29    ar
33    14    15    ar
34    15    16    ar
35    16    17    ar
36    16    48    1
37    17    18    1
38    17    19    ar
39    19    20    1
40    19    29    ar
41    20    28    1
42    20    21    2
43    21    22    1
44    21    49    1
45    22    23    1
46    22    50    1
47    23    28    ar
48    23    24    ar
49    24    25    ar
50    24    51    1
51    25    26    ar
52    25    52    1
53    26    27    ar
54    26    53    1
55    27    28    ar
56    27    54    1
57    30    31    ar
58    30    55    1
59    31    56    1
60    32    33    1
61    32    57    1
62    32    58    1
63    33    59    1
64    33    60    1
@<TRIPOS>SUBSTRUCTURE
1   ZINC000028821340 1     RESIDUE    1   A     ZIN   1
