@<TRIPOS>MOLECULE
ZINC000008214742
84    89    1     0     0
SMALL
USER_CHARGES
@<TRIPOS>ATOM
1      C1      0.0492    1.5828    1.3042 C.3      1 ZINC000008214742    0.0300
2      O2      0.1276    0.1993    0.9551 O.3      1 ZINC000008214742   -0.3700
3      C3     -1.1440   -0.4329    0.7958 C.3      1 ZINC000008214742    0.1100
4      H4     -1.8742    0.0476    1.4469 H        1 ZINC000008214742    0.0800
5      C5     -1.5982   -0.3103   -0.6619 C.3      1 ZINC000008214742    0.0700
6      H6     -0.8432   -0.7456   -1.3166 H        1 ZINC000008214742    0.0900
7      O7     -1.7785    1.0684   -0.9915 O.3      1 ZINC000008214742   -0.5400
8      C8     -2.9224   -1.0577   -0.8403 C.3      1 ZINC000008214742    0.2100
9      H9     -3.2288   -1.0100   -1.8852 H        1 ZINC000008214742    0.1100
10     O10    -3.9251   -0.4526   -0.0215 O.3      1 ZINC000008214742   -0.3700
11     C11    -5.2531   -0.8982   -0.3042 C.3      1 ZINC000008214742    0.0900
12     H12    -5.2756   -1.3741   -1.2845 H        1 ZINC000008214742    0.0600
13     C13    -5.6910   -1.9048    0.7615 C.3      1 ZINC000008214742   -0.1400
14     C14    -5.6599   -1.2368    2.1377 C.3      1 ZINC000008214742   -0.1000
15     C15    -6.6118   -0.0391    2.1450 C.3      1 ZINC000008214742   -0.0400
16     C16    -6.5813    0.6284    3.5213 C.3      1 ZINC000008214742   -0.1500
17     C17    -6.1736    0.9675    1.0793 C.3      1 ZINC000008214742   -0.0700
18     H18    -5.1606    1.3073    1.2951 H        1 ZINC000008214742    0.0800
19     C19    -7.1259    2.1650    1.0876 C.3      1 ZINC000008214742   -0.1200
20     C20    -8.5478    1.6887    0.7848 C.3      1 ZINC000008214742   -0.1200
21     C21    -8.9860    0.6788    1.8483 C.3      1 ZINC000008214742   -0.1000
22     H22    -8.9345    1.1586    2.8257 H        1 ZINC000008214742    0.0800
23     C23    -8.0339   -0.5162    1.8406 C.3      1 ZINC000008214742   -0.0700
24     H24    -8.0671   -1.0053    0.8670 H        1 ZINC000008214742    0.0800
25     C25    -8.4803   -1.5000    2.9274 C.3      1 ZINC000008214742   -0.1200
26     C26    -9.8726   -2.0162    2.5741 C.3      1 ZINC000008214742   -0.1100
27     C27   -10.8867   -0.8698    2.5541 C.3      1 ZINC000008214742   -0.0300
28     C28   -11.1847   -0.3511    3.9624 C.3      1 ZINC000008214742   -0.1400
29     C29   -12.1550   -1.4103    1.8412 C.3      1 ZINC000008214742   -0.0400
30     H30   -12.2348   -2.4878    1.9850 H        1 ZINC000008214742    0.0900
31     C31   -13.3838   -0.7243    2.3803 C.2      1 ZINC000008214742   -0.0500
32     C32   -14.3636   -1.2899    3.0806 C.2      1 ZINC000008214742   -0.2500
33     C33   -15.3719   -0.2806    3.4152 C.2      1 ZINC000008214742    0.4900
34     O34   -16.3866   -0.4920    4.0500 O.2      1 ZINC000008214742   -0.4600
35     O35   -15.0080    0.9154    2.9159 O.3      1 ZINC000008214742   -0.3300
36     C36   -13.7345    0.7380    2.2343 C.3      1 ZINC000008214742    0.0600
37     C37   -11.9810   -1.0877    0.3453 C.3      1 ZINC000008214742   -0.1100
38     C38   -10.6404   -0.3295    0.2101 C.3      1 ZINC000008214742   -0.1500
39     C39   -10.4079    0.2373    1.6023 C.3      1 ZINC000008214742    0.1500
40     O40   -11.2632    1.3654    1.7971 O.3      1 ZINC000008214742   -0.5600
41     C41    -6.2053    0.2994   -0.2967 C.3      1 ZINC000008214742   -0.1200
42     O42    -2.7526   -2.4234   -0.4553 O.3      1 ZINC000008214742   -0.3800
43     C43    -2.3740   -2.6016    0.9111 C.3      1 ZINC000008214742    0.0600
44     H44    -3.1317   -2.1605    1.5587 H        1 ZINC000008214742    0.0800
45     C45    -2.2500   -4.0960    1.2154 C.3      1 ZINC000008214742   -0.1500
46     C46    -1.0284   -1.9158    1.1619 C.3      1 ZINC000008214742    0.0900
47     H47    -0.2609   -2.3827    0.5446 H        1 ZINC000008214742    0.0700
48     O48    -0.6762   -2.0452    2.5408 O.3      1 ZINC000008214742   -0.5500
49     H49     1.0553    1.9893    1.4066 H        1 ZINC000008214742    0.0800
50     H50    -0.4840    2.1249    0.5233 H        1 ZINC000008214742    0.0600
51     H51    -0.4836    1.6894    2.2491 H        1 ZINC000008214742    0.0400
52     H52    -2.0665    1.2208   -1.9020 H        1 ZINC000008214742    0.3800
53     H53    -6.7038   -2.2450    0.5456 H        1 ZINC000008214742    0.0700
54     H54    -5.0124   -2.7578    0.7563 H        1 ZINC000008214742    0.0700
55     H55    -5.9724   -1.9539    2.8967 H        1 ZINC000008214742    0.0600
56     H56    -4.6470   -0.8972    2.3538 H        1 ZINC000008214742    0.0700
57     H57    -5.5685    0.9680    3.7380 H        1 ZINC000008214742    0.0500
58     H58    -7.2595    1.4817    3.5264 H        1 ZINC000008214742    0.0600
59     H59    -6.8941   -0.0889    4.2801 H        1 ZINC000008214742    0.0600
60     H60    -7.1031    2.6404    2.0682 H        1 ZINC000008214742    0.0700
61     H61    -6.8138    2.8826    0.3287 H        1 ZINC000008214742    0.0600
62     H62    -9.2261    2.5420    0.7928 H        1 ZINC000008214742    0.0600
63     H63    -8.5711    1.2156   -0.1969 H        1 ZINC000008214742    0.0700
64     H64    -7.7814   -2.3352    2.9744 H        1 ZINC000008214742    0.0700
65     H65    -8.5121   -0.9913    3.8908 H        1 ZINC000008214742    0.0700
66     H66    -9.8425   -2.4860    1.5910 H        1 ZINC000008214742    0.0700
67     H67   -10.1802   -2.7546    3.3146 H        1 ZINC000008214742    0.0700
68     H68   -10.2676    0.0313    4.4104 H        1 ZINC000008214742    0.0600
69     H69   -11.9228    0.4490    3.9062 H        1 ZINC000008214742    0.0700
70     H70   -11.5761   -1.1642    4.5738 H        1 ZINC000008214742    0.0600
71     H71   -14.4090   -2.3323    3.3592 H        1 ZINC000008214742    0.1600
72     H72   -12.9703    1.3614    2.6984 H        1 ZINC000008214742    0.1500
73     H73   -13.8354    0.9902    1.1787 H        1 ZINC000008214742    0.1100
74     H74   -11.9484   -2.0103   -0.2343 H        1 ZINC000008214742    0.0700
75     H75   -12.8020   -0.4588    0.0010 H        1 ZINC000008214742    0.0700
76     H76    -9.8358   -1.0163   -0.0527 H        1 ZINC000008214742    0.0800
77     H77   -10.7229    0.4675   -0.5288 H        1 ZINC000008214742    0.0800
78     H78   -11.1027    2.0919    1.1795 H        1 ZINC000008214742    0.3700
79     H79    -5.8931    1.0165   -1.0561 H        1 ZINC000008214742    0.0700
80     H80    -7.2182   -0.0404   -0.5124 H        1 ZINC000008214742    0.0800
81     H81    -1.4921   -4.5369    0.5680 H        1 ZINC000008214742    0.0700
82     H82    -1.9613   -4.2318    2.2576 H        1 ZINC000008214742    0.0800
83     H83    -3.2084   -4.5838    1.0373 H        1 ZINC000008214742    0.0700
84     H84    -0.5896   -2.9605    2.8404 H        1 ZINC000008214742    0.3800
@<TRIPOS>BOND
1     1     2     1
2     1     49    1
3     1     50    1
4     1     51    1
5     2     3     1
6     3     4     1
7     3     46    1
8     3     5     1
9     5     6     1
10    5     7     1
11    5     8     1
12    7     52    1
13    8     9     1
14    8     10    1
15    8     42    1
16    10    11    1
17    11    12    1
18    11    41    1
19    11    13    1
20    13    14    1
21    13    53    1
22    13    54    1
23    14    15    1
24    14    55    1
25    14    56    1
26    15    23    1
27    15    16    1
28    15    17    1
29    16    57    1
30    16    58    1
31    16    59    1
32    17    18    1
33    17    19    1
34    17    41    1
35    19    20    1
36    19    60    1
37    19    61    1
38    20    21    1
39    20    62    1
40    20    63    1
41    21    22    1
42    21    39    1
43    21    23    1
44    23    24    1
45    23    25    1
46    25    26    1
47    25    64    1
48    25    65    1
49    26    27    1
50    26    66    1
51    26    67    1
52    27    39    1
53    27    28    1
54    27    29    1
55    28    68    1
56    28    69    1
57    28    70    1
58    29    30    1
59    29    31    1
60    29    37    1
61    31    36    1
62    31    32    2
63    32    33    1
64    32    71    1
65    33    34    2
66    33    35    1
67    35    36    1
68    36    72    1
69    36    73    1
70    37    38    1
71    37    74    1
72    37    75    1
73    38    39    1
74    38    76    1
75    38    77    1
76    39    40    1
77    40    78    1
78    41    79    1
79    41    80    1
80    42    43    1
81    43    44    1
82    43    45    1
83    43    46    1
84    45    81    1
85    45    82    1
86    45    83    1
87    46    47    1
88    46    48    1
89    48    84    1
@<TRIPOS>SUBSTRUCTURE
1   ZINC000008214742 1     RESIDUE    1   A     ZIN   1
