@<TRIPOS>MOLECULE
ZINC000003872044
  44   48    0    0    0
SMALL
USER_CHARGES
NO_NAME
@<TRIPOS>ATOM
    1 C1       -0.0173     1.4248     0.0099 C.3    1 <0>       0.0100
    2 O2        0.0021    -0.0041     0.0020 O.3    1 <0>      -0.2900
    3 C3        0.6063    -0.6076    -1.0566 C.ar   1 <0>       0.1300
    4 C4        1.1668     0.1699    -2.0661 C.ar   1 <0>      -0.1200
    5 C5        1.7925    -0.4104    -3.1343 C.ar   1 <0>      -0.0700
    6 C6        1.8679    -1.7986    -3.2241 C.ar   1 <0>      -0.0100
    7 C7        2.5547    -2.4834    -4.3206 C.ar   1 <0>       0.0000
    8 C8        2.6428    -3.8958    -4.2954 C.ar   1 <0>       0.1000
    9 C9        3.4891    -4.5266    -5.3083 C.ar   1 <0>      -0.0200
   10 C10       4.0370    -5.8051    -5.1821 C.ar   1 <0>      -0.1200
   11 C11       4.6992    -6.3961    -6.2374 C.ar   1 <0>       0.0800
   12 C12       4.9004    -5.6927    -7.4333 C.ar   1 <0>       0.0600
   13 C13       4.4841    -4.3864    -7.5372 C.ar   1 <0>      -0.0800
   14 C14       3.8685    -3.7620    -6.4430 C.ar   1 <0>      -0.0300
   15 C15       3.6818    -2.3635    -6.4405 C.ar   1 <0>      -0.0400
   16 C16       3.0753    -1.7514    -5.4003 C.ar   1 <0>      -0.1200
   17 O17       5.5212    -6.5206    -8.3227 O.3    1 <0>      -0.2900
   18 C18       6.1060    -7.5674    -7.5263 C.3    1 <0>       0.2100
   19 O19       5.2656    -7.6320    -6.3606 O.3    1 <0>      -0.3000
   20 N20       1.9114    -4.5662    -3.4036 N.ar   1 <0>      -0.3300
   21 C21       1.6647    -6.0039    -3.5361 C.3    1 <0>       0.0000
   22 C22       1.3113    -3.9989    -2.3820 C.ar   1 <0>       0.2200
   23 C23       1.2714    -2.6047    -2.2218 C.ar   1 <0>      -0.1000
   24 C24       0.6565    -1.9903    -1.1198 C.ar   1 <0>       0.1200
   25 O25       0.1149    -2.7405    -0.1249 O.3    1 <0>      -0.3200
   26 C26       0.9708    -3.0871     0.9657 C.3    1 <0>       0.0300
   27 H27       1.0053     1.8021     0.0021 H      1 <0>       0.0700
   28 H28      -0.5445     1.7859    -0.8732 H      1 <0>       0.0700
   29 H29      -0.5275     1.7763     0.9067 H      1 <0>       0.1200
   30 H30       1.1066     1.2466    -2.0055 H      1 <0>       0.1600
   31 H31       2.2269     0.2099    -3.9039 H      1 <0>       0.1600
   32 H32       4.0155    -6.3333    -4.2397 H      1 <0>       0.1500
   33 H33       4.6318    -3.8418    -8.4583 H      1 <0>       0.1600
   34 H34       4.0276    -1.7779    -7.2790 H      1 <0>       0.1600
   35 H35       2.9889    -0.6746    -5.4020 H      1 <0>       0.1600
   36 H36       6.0854    -8.5144    -8.0665 H      1 <0>       0.1500
   37 H37       7.1284    -7.3106    -7.2486 H      1 <0>       0.1000
   38 H38       2.4508    -6.5563    -3.0213 H      1 <0>       0.1200
   39 H39       0.6990    -6.2491    -3.0941 H      1 <0>       0.1300
   40 H40       1.6608    -6.2761    -4.5916 H      1 <0>       0.1200
   41 H41       0.8376    -4.6343    -1.6475 H      1 <0>       0.2100
   42 H42       1.3316    -2.1783     1.4473 H      1 <0>       0.0600
   43 H43       0.4150    -3.6850     1.6879 H      1 <0>       0.1100
   44 H44       1.8186    -3.6623     0.5935 H      1 <0>       0.0500
@<TRIPOS>BOND
   1    1    2 1
   2    1   27 1
   3    1   28 1
   4    1   29 1
   5    2    3 1
   6    3   24 ar
   7    3    4 ar
   8    4    5 ar
   9    4   30 1
  10    5    6 ar
  11    5   31 1
  12    6   23 ar
  13    6    7 ar
  14    7   16 ar
  15    7    8 ar
  16    8    9 ar
  17    8   20 ar
  18    9   14 ar
  19    9   10 ar
  20   10   11 ar
  21   10   32 1
  22   11   19 1
  23   11   12 ar
  24   12   13 ar
  25   12   17 1
  26   13   14 ar
  27   13   33 1
  28   14   15 ar
  29   15   16 ar
  30   15   34 1
  31   16   35 1
  32   17   18 1
  33   18   19 1
  34   18   36 1
  35   18   37 1
  36   20   21 1
  37   20   22 ar
  38   21   38 1
  39   21   39 1
  40   21   40 1
  41   22   23 ar
  42   22   41 1
  43   23   24 ar
  44   24   25 1
  45   25   26 1
  46   26   42 1
  47   26   43 1
  48   26   44 1
