@<TRIPOS>MOLECULE
ZINC000002254353
52    55    1     0     0
SMALL
USER_CHARGES
@<TRIPOS>ATOM
1      C1     -0.0173    1.4248    0.0099 C.3      1 ZINC000002254353    0.0300
2      O2      0.0021   -0.0041    0.0020 O.3      1 ZINC000002254353   -0.3900
3      C3      0.6518   -0.5703   -1.1379 C.3      1 ZINC000002254353    0.0700
4      C4      0.6131   -2.0967   -1.0411 C.3      1 ZINC000002254353   -0.1400
5      C5      1.3087   -2.7029   -2.2615 C.3      1 ZINC000002254353    0.1100
6      N6      1.2717   -4.1645   -2.1688 N.pl3    1 ZINC000002254353   -0.4900
7      C7      2.2242   -4.9253   -1.5640 C.2      1 ZINC000002254353    0.4800
8      N8      3.3500   -4.4319   -0.9579 N.pl3    1 ZINC000002254353   -0.8300
9      C9      1.8942   -6.2737   -1.6469 C.2      1 ZINC000002254353   -0.3200
10     C10     2.6645   -7.3968   -1.1172 C.2      1 ZINC000002254353    0.6100
11     O11     2.4624   -7.7929    0.0164 O.2      1 ZINC000002254353   -0.5300
12     N12     3.5986   -7.9943   -1.8833 N.am     1 ZINC000002254353   -0.7200
13     C13     4.3708   -9.1203   -1.3522 C.3      1 ZINC000002254353    0.1400
14     C14     3.6228  -10.4440   -1.6133 C.3      1 ZINC000002254353   -0.1400
15     C15     4.2497  -10.9826   -2.9232 C.3      1 ZINC000002254353   -0.1300
16     C16     5.7449  -10.6104   -2.7648 C.3      1 ZINC000002254353   -0.1300
17     C17     5.7201   -9.2261   -2.0844 C.3      1 ZINC000002254353   -0.1300
18     C18     0.6158   -6.3465   -2.3726 C.ar     1 ZINC000002254353    0.1700
19     N19    -0.1774   -7.3295   -2.7488 N.ar     1 ZINC000002254353   -0.4200
20     C20    -1.3043   -7.0500   -3.4149 C.ar     1 ZINC000002254353    0.0900
21     C21    -2.1634   -8.0866   -3.8242 C.ar     1 ZINC000002254353   -0.0800
22     C22    -3.3064   -7.7906   -4.5004 C.ar     1 ZINC000002254353   -0.1000
23     C23    -3.6414   -6.4707   -4.7960 C.ar     1 ZINC000002254353   -0.1000
24     C24    -2.8352   -5.4422   -4.4169 C.ar     1 ZINC000002254353   -0.0800
25     C25    -1.6451   -5.7073   -3.7150 C.ar     1 ZINC000002254353    0.1000
26     N26    -0.8461   -4.7010   -3.3375 N.ar     1 ZINC000002254353   -0.4400
27     C27     0.2632   -4.9570   -2.6776 C.ar     1 ZINC000002254353    0.2900
28     H28     1.0053    1.8021    0.0021 H        1 ZINC000002254353    0.0400
29     H29    -0.5445    1.7859   -0.8732 H        1 ZINC000002254353    0.0400
30     H30    -0.5275    1.7763    0.9067 H        1 ZINC000002254353    0.0900
31     H31     0.1385   -0.2506   -2.0447 H        1 ZINC000002254353    0.0600
32     H32     1.6883   -0.2344   -1.1694 H        1 ZINC000002254353    0.0500
33     H33     1.1264   -2.4164   -0.1342 H        1 ZINC000002254353    0.0800
34     H34    -0.4234   -2.4326   -1.0095 H        1 ZINC000002254353    0.0800
35     H35     0.7954   -2.3833   -3.1684 H        1 ZINC000002254353    0.1100
36     H36     2.3452   -2.3671   -2.2930 H        1 ZINC000002254353    0.0900
37     H37     3.5117   -3.4756   -0.9399 H        1 ZINC000002254353    0.4100
38     H38     3.9852   -5.0390   -0.5469 H        1 ZINC000002254353    0.4300
39     H39     3.7596   -7.6788   -2.7863 H        1 ZINC000002254353    0.4000
40     H40     4.5357   -8.9883   -0.2829 H        1 ZINC000002254353    0.0900
41     H41     3.7893  -11.1441   -0.7946 H        1 ZINC000002254353    0.0700
42     H42     2.5570  -10.2597   -1.7481 H        1 ZINC000002254353    0.0700
43     H43     4.1262  -12.0632   -2.9947 H        1 ZINC000002254353    0.0700
44     H44     3.8176  -10.4850   -3.7914 H        1 ZINC000002254353    0.0700
45     H45     6.2541  -11.3373   -2.1321 H        1 ZINC000002254353    0.0700
46     H46     6.2277  -10.5475   -3.7400 H        1 ZINC000002254353    0.0700
47     H47     5.8003   -8.4397   -2.8349 H        1 ZINC000002254353    0.0700
48     H48     6.5397   -9.1463   -1.3703 H        1 ZINC000002254353    0.0700
49     H49    -1.9161   -9.1143   -3.6025 H        1 ZINC000002254353    0.1400
50     H50    -3.9627   -8.5895   -4.8125 H        1 ZINC000002254353    0.1300
51     H51    -4.5540   -6.2611   -5.3343 H        1 ZINC000002254353    0.1300
52     H52    -3.1084   -4.4246   -4.6542 H        1 ZINC000002254353    0.1400
@<TRIPOS>BOND
1     1     2     1
2     1     28    1
3     1     29    1
4     1     30    1
5     2     3     1
6     3     4     1
7     3     31    1
8     3     32    1
9     4     5     1
10    4     33    1
11    4     34    1
12    5     6     1
13    5     35    1
14    5     36    1
15    6     27    1
16    6     7     1
17    7     8     1
18    7     9     2
19    8     37    1
20    8     38    1
21    9     10    1
22    9     18    1
23    10    11    2
24    10    12    am
25    12    13    1
26    12    39    1
27    13    17    1
28    13    14    1
29    13    40    1
30    14    15    1
31    14    41    1
32    14    42    1
33    15    16    1
34    15    43    1
35    15    44    1
36    16    17    1
37    16    45    1
38    16    46    1
39    17    47    1
40    17    48    1
41    18    27    ar
42    18    19    ar
43    19    20    ar
44    20    25    ar
45    20    21    ar
46    21    22    ar
47    21    49    1
48    22    23    ar
49    22    50    1
50    23    24    ar
51    23    51    1
52    24    25    ar
53    24    52    1
54    25    26    ar
55    26    27    ar
@<TRIPOS>SUBSTRUCTURE
1   ZINC000002254353 1     RESIDUE    1   A     ZIN   1
