@<TRIPOS>MOLECULE
ZINC000585672941
44    47    1     0     0
SMALL
USER_CHARGES
@<TRIPOS>ATOM
1      C1     -0.0184    1.5028    0.0103 C.3      1 ZINC000585672941   -0.1900
2      C2      0.0021   -0.0041    0.0020 C.2      1 ZINC000585672941    0.4200
3      O3      1.0631   -0.5976   -0.0113 O.2      1 ZINC000585672941   -0.4900
4      C4     -1.2042   -0.7226    0.0097 C.2      1 ZINC000585672941   -0.1400
5      C5     -2.4808   -0.1704    0.0188 C.2      1 ZINC000585672941   -0.0300
6      C6     -3.3930   -1.2211    0.0242 C.2      1 ZINC000585672941   -0.1300
7      C7     -4.8695   -1.0999    0.0339 C.ar     1 ZINC000585672941   -0.0100
8      C8     -5.5304   -0.5396   -1.0557 C.ar     1 ZINC000585672941   -0.0400
9      C9     -6.9197   -0.4291   -1.0388 C.ar     1 ZINC000585672941   -0.1400
10     C10    -7.6300    0.1643   -2.1919 C.2      1 ZINC000585672941    0.5700
11     O11    -7.0022    0.5565   -3.1561 O.2      1 ZINC000585672941   -0.5300
12     N12    -8.9734    0.2704   -2.1739 N.am     1 ZINC000585672941   -0.7000
13     C13    -9.6772    0.8584   -3.3164 C.3      1 ZINC000585672941    0.0800
14     C14   -10.9470    0.1561   -3.8015 C.3      1 ZINC000585672941   -0.1900
15     C15   -11.0470    1.4877   -3.0546 C.3      1 ZINC000585672941   -0.1900
16     C16    -7.6391   -0.8806    0.0695 C.ar     1 ZINC000585672941   -0.0800
17     C17    -6.9768   -1.4354    1.1466 C.ar     1 ZINC000585672941   -0.1300
18     C18    -5.6011   -1.5527    1.1331 C.ar     1 ZINC000585672941   -0.0300
19     C19    -4.8867   -2.1599    2.3130 C.3      1 ZINC000585672941   -0.1200
20     C20    -2.6552   -2.4213    0.0182 C.2      1 ZINC000585672941    0.2600
21     N21    -3.0446   -3.6992    0.0192 N.2      1 ZINC000585672941   -0.4500
22     C22    -2.1639   -4.6751    0.0119 C.2      1 ZINC000585672941    0.1600
23     C23    -0.7942   -4.3864    0.0033 C.2      1 ZINC000585672941   -0.2000
24     C24    -0.3884   -3.0908    0.0022 C.2      1 ZINC000585672941    0.1200
25     N25    -1.3260   -2.0998    0.0034 N.pl3    1 ZINC000585672941   -0.3400
26     H26     1.0042    1.8801    0.0026 H        1 ZINC000585672941    0.0900
27     H27    -0.5455    1.8639   -0.8728 H        1 ZINC000585672941    0.1000
28     H28    -0.5286    1.8543    0.9071 H        1 ZINC000585672941    0.1000
29     H29    -2.7205    0.8827    0.0215 H        1 ZINC000585672941    0.1700
30     H30    -4.9690   -0.1916   -1.9102 H        1 ZINC000585672941    0.1400
31     H31    -9.4744   -0.0426   -1.4045 H        1 ZINC000585672941    0.4000
32     H32    -9.0429    1.3280   -4.0682 H        1 ZINC000585672941    0.1400
33     H33   -11.1483    0.1636   -4.8727 H        1 ZINC000585672941    0.1000
34     H34   -11.2588   -0.7433   -3.2706 H        1 ZINC000585672941    0.1000
35     H35   -11.4245    1.4643   -2.0324 H        1 ZINC000585672941    0.1000
36     H36   -11.3140    2.3712   -3.6345 H        1 ZINC000585672941    0.1100
37     H37    -8.7157   -0.7954    0.0843 H        1 ZINC000585672941    0.1200
38     H38    -7.5376   -1.7832    2.0016 H        1 ZINC000585672941    0.1300
39     H39    -4.7981   -3.2367    2.1691 H        1 ZINC000585672941    0.0800
40     H40    -3.8924   -1.7219    2.4005 H        1 ZINC000585672941    0.0600
41     H41    -5.4531   -1.9602    3.2226 H        1 ZINC000585672941    0.0700
42     H42    -2.4980   -5.7021    0.0128 H        1 ZINC000585672941    0.1800
43     H43    -0.0680   -5.1857   -0.0020 H        1 ZINC000585672941    0.1700
44     H44     0.6638   -2.8477   -0.0044 H        1 ZINC000585672941    0.1900
@<TRIPOS>BOND
1     1     2     1
2     1     26    1
3     1     27    1
4     1     28    1
5     2     3     2
6     2     4     1
7     4     25    1
8     4     5     2
9     5     6     1
10    5     29    1
11    6     7     1
12    6     20    2
13    7     18    ar
14    7     8     ar
15    8     9     ar
16    8     30    1
17    9     10    1
18    9     16    ar
19    10    11    2
20    10    12    am
21    12    13    1
22    12    31    1
23    13    15    1
24    13    14    1
25    13    32    1
26    14    15    1
27    14    33    1
28    14    34    1
29    15    35    1
30    15    36    1
31    16    17    ar
32    16    37    1
33    17    18    ar
34    17    38    1
35    18    19    1
36    19    39    1
37    19    40    1
38    19    41    1
39    20    25    1
40    20    21    1
41    21    22    2
42    22    23    1
43    22    42    1
44    23    24    2
45    23    43    1
46    24    25    1
47    24    44    1
@<TRIPOS>SUBSTRUCTURE
1   ZINC000585672941 1     RESIDUE    1   A     ZIN   1
