@<TRIPOS>MOLECULE
ZINC000000582575
  52   54    0    0    0
SMALL
USER_CHARGES
NO_NAME
@<TRIPOS>ATOM
    1 C1        0.1858     0.4876    -0.2306 C.3    1 <0>      -0.1500
    2 C2       -0.0718    -1.0160    -0.3473 C.3    1 <0>      -0.1000
    3 C3        0.6246    -1.7437     0.8044 C.3    1 <0>      -0.1400
    4 C4       -1.5771    -1.2821    -0.2828 C.3    1 <0>       0.1700
    5 H5       -1.9699    -0.9188     0.6668 H      1 <0>       0.1000
    6 C6       -1.8347    -2.7857    -0.3996 C.3    1 <0>       0.0600
    7 O7       -1.2185    -3.2837    -1.5889 O.3    1 <0>      -0.5700
    8 N8       -2.2438    -0.5854    -1.3857 N.pl3  1 <0>      -0.6800
    9 C9       -3.5783    -0.2307    -1.2749 C.ar   1 <0>       0.6300
   10 N10      -4.2295    -0.5283    -0.1580 N.ar   1 <0>      -0.6100
   11 C11      -5.5100    -0.2092    -0.0038 C.ar   1 <0>       0.5300
   12 N12      -6.1813    -0.5235     1.1656 N.pl3  1 <0>      -0.6400
   13 C13      -5.4848    -1.0752     2.2446 C.ar   1 <0>       0.1700
   14 C14      -4.1925    -0.6522     2.5282 C.ar   1 <0>      -0.1100
   15 C15      -3.5064    -1.1991     3.5951 C.ar   1 <0>      -0.0900
   16 C16      -4.1042    -2.1668     4.3808 C.ar   1 <0>      -0.1300
   17 C17      -5.3917    -2.5914     4.1011 C.ar   1 <0>      -0.0100
   18 Cl18     -6.1382    -3.8072     5.0901 Cl     1 <0>      -0.0700
   19 C19      -6.0856    -2.0436     3.0389 C.ar   1 <0>      -0.1400
   20 C20      -6.1683     0.4546    -1.0532 C.ar   1 <0>      -0.1500
   21 N21      -7.4277     0.9189    -1.2434 N.2    1 <0>      -0.4600
   22 C22      -7.5145     1.4660    -2.4206 C.2    1 <0>       0.2400
   23 N23      -6.3123     1.3863    -3.0609 N.pl3  1 <0>      -0.4700
   24 C24      -6.0103     1.8887    -4.4036 C.3    1 <0>       0.1300
   25 C25      -6.9162     1.1955    -5.4232 C.3    1 <0>      -0.1600
   26 C26      -6.2527     3.3987    -4.4496 C.3    1 <0>      -0.1600
   27 C27      -5.4383     0.7491    -2.2169 C.ar   1 <0>       0.3500
   28 N28      -4.1582     0.3979    -2.2846 N.ar   1 <0>      -0.6100
   29 H29       1.2582     0.6771    -0.2766 H      1 <0>       0.0600
   30 H30      -0.3103     1.0060    -1.0511 H      1 <0>       0.0600
   31 H31      -0.2070     0.8509     0.7190 H      1 <0>       0.0500
   32 H32       0.3210    -1.3793    -1.2970 H      1 <0>       0.0900
   33 H33       0.2317    -1.3804     1.7541 H      1 <0>       0.0600
   34 H34       0.4410    -2.8149     0.7213 H      1 <0>       0.0600
   35 H35       1.6970    -1.5541     0.7585 H      1 <0>       0.0600
   36 H36      -1.4145    -3.2948     0.4678 H      1 <0>       0.0600
   37 H37      -2.9084    -2.9681    -0.4430 H      1 <0>       0.0500
   38 H38      -1.3413    -4.2327    -1.7278 H      1 <0>       0.3800
   39 H39      -1.7508    -0.3724    -2.1934 H      1 <0>       0.4200
   40 H40      -7.1349    -0.3608     1.2362 H      1 <0>       0.4300
   41 H41      -3.7244     0.1035     1.9149 H      1 <0>       0.1400
   42 H42      -2.5015    -0.8705     3.8154 H      1 <0>       0.1300
   43 H43      -3.5654    -2.5927     5.2143 H      1 <0>       0.1300
   44 H44      -7.0901    -2.3749     2.8207 H      1 <0>       0.1400
   45 H45      -8.4064     1.9163    -2.8305 H      1 <0>       0.2200
   46 H46      -4.9676     1.6806    -4.6433 H      1 <0>       0.1100
   47 H47      -7.9590     1.4036    -5.1834 H      1 <0>       0.0700
   48 H48      -6.6916     1.5692    -6.4221 H      1 <0>       0.0800
   49 H49      -6.7436     0.1197    -5.3904 H      1 <0>       0.0600
   50 H50      -6.0280     3.7725    -5.4485 H      1 <0>       0.0800
   51 H51      -7.2954     3.6068    -4.2098 H      1 <0>       0.0700
   52 H52      -5.6073     3.8926    -3.7232 H      1 <0>       0.0600
@<TRIPOS>BOND
   1    1    2 1
   2    1   29 1
   3    1   30 1
   4    1   31 1
   5    2    3 1
   6    2    4 1
   7    2   32 1
   8    3   33 1
   9    3   34 1
  10    3   35 1
  11    4    5 1
  12    4    6 1
  13    4    8 1
  14    6    7 1
  15    6   36 1
  16    6   37 1
  17    7   38 1
  18    8    9 1
  19    8   39 1
  20    9   28 ar
  21    9   10 ar
  22   10   11 ar
  23   11   12 1
  24   11   20 ar
  25   12   13 1
  26   12   40 1
  27   13   19 ar
  28   13   14 ar
  29   14   15 ar
  30   14   41 1
  31   15   16 ar
  32   15   42 1
  33   16   17 ar
  34   16   43 1
  35   17   18 1
  36   17   19 ar
  37   19   44 1
  38   20   27 ar
  39   20   21 1
  40   21   22 2
  41   22   23 1
  42   22   45 1
  43   23   24 1
  44   23   27 1
  45   24   25 1
  46   24   26 1
  47   24   46 1
  48   25   47 1
  49   25   48 1
  50   25   49 1
  51   26   50 1
  52   26   51 1
  53   26   52 1
  54   27   28 ar
