@<TRIPOS>MOLECULE
ZINC000002566194
39    41    1     0     0
SMALL
USER_CHARGES
@<TRIPOS>ATOM
1      C1     -0.0173    1.4248    0.0099 C.3      1 ZINC000002566194    0.0200
2      O2      0.0021   -0.0041    0.0020 O.3      1 ZINC000002566194   -0.3100
3      C3     -1.1990   -0.6368    0.0101 C.ar     1 ZINC000002566194    0.1600
4      C4     -2.3735    0.1061    0.0195 C.ar     1 ZINC000002566194   -0.2100
5      C5     -3.5941   -0.5317    0.0272 C.ar     1 ZINC000002566194   -0.0400
6      C6     -3.6506   -1.9283    0.0256 C.ar     1 ZINC000002566194   -0.1100
7      C7     -4.9556   -2.6157    0.0334 C.2      1 ZINC000002566194    0.2100
8      C8     -4.9785   -3.9758    0.0373 C.2      1 ZINC000002566194   -0.3100
9      C9     -6.2210   -4.6527    0.0452 C.2      1 ZINC000002566194    0.4300
10     O10    -6.2790   -5.8717    0.0492 O.2      1 ZINC000002566194   -0.4600
11     C11    -7.4417   -3.8287    0.0490 C.ar     1 ZINC000002566194   -0.2900
12     C12    -8.7138   -4.4137    0.0574 C.ar     1 ZINC000002566194    0.2500
13     O13    -8.8450   -5.7645    0.0622 O.3      1 ZINC000002566194   -0.2800
14     C14   -10.1750   -6.2870    0.0707 C.3      1 ZINC000002566194    0.0200
15     C15    -9.8354   -3.6048    0.0611 C.ar     1 ZINC000002566194   -0.3300
16     C16    -9.6987   -2.2212    0.0566 C.ar     1 ZINC000002566194    0.2300
17     O17   -10.8063   -1.4363    0.0603 O.3      1 ZINC000002566194   -0.3000
18     C18   -12.0717   -2.1000    0.0689 C.3      1 ZINC000002566194    0.0200
19     C19    -8.4420   -1.6353    0.0488 C.ar     1 ZINC000002566194   -0.2200
20     C20    -7.3063   -2.4295    0.0445 C.ar     1 ZINC000002566194    0.2300
21     O21    -6.0754   -1.8752    0.0420 O.3      1 ZINC000002566194   -0.2200
22     C22    -2.4669   -2.6716    0.0162 C.ar     1 ZINC000002566194   -0.0400
23     C23    -1.2506   -2.0256    0.0031 C.ar     1 ZINC000002566194   -0.1500
24     H24     1.0053    1.8021    0.0021 H        1 ZINC000002566194    0.1000
25     H25    -0.5445    1.7859   -0.8732 H        1 ZINC000002566194    0.0600
26     H26    -0.5275    1.7763    0.9067 H        1 ZINC000002566194    0.0600
27     H27    -2.3289    1.1852    0.0211 H        1 ZINC000002566194    0.1400
28     H28    -4.5063    0.0465    0.0349 H        1 ZINC000002566194    0.1400
29     H29    -4.0546   -4.5351    0.0339 H        1 ZINC000002566194    0.1600
30     H30   -10.7057   -5.9444   -0.8177 H        1 ZINC000002566194    0.0600
31     H31   -10.1374   -7.3764    0.0738 H        1 ZINC000002566194    0.1100
32     H32   -10.6965   -5.9389    0.9623 H        1 ZINC000002566194    0.0600
33     H33   -10.8199   -4.0488    0.0672 H        1 ZINC000002566194    0.1500
34     H34   -12.8708   -1.3587    0.0711 H        1 ZINC000002566194    0.1100
35     H35   -12.1596   -2.7262   -0.8189 H        1 ZINC000002566194    0.0600
36     H36   -12.1501   -2.7214    0.9610 H        1 ZINC000002566194    0.0600
37     H37    -8.3482   -0.5593    0.0454 H        1 ZINC000002566194    0.1500
38     H38    -2.5061   -3.7508    0.0149 H        1 ZINC000002566194    0.1400
39     H39    -0.3355   -2.5991   -0.0042 H        1 ZINC000002566194    0.1400
@<TRIPOS>BOND
1     1     2     1
2     1     24    1
3     1     25    1
4     1     26    1
5     2     3     1
6     3     23    ar
7     3     4     ar
8     4     5     ar
9     4     27    1
10    5     6     ar
11    5     28    1
12    6     7     1
13    6     22    ar
14    7     21    1
15    7     8     2
16    8     9     1
17    8     29    1
18    9     10    2
19    9     11    1
20    11    20    ar
21    11    12    ar
22    12    13    1
23    12    15    ar
24    13    14    1
25    14    30    1
26    14    31    1
27    14    32    1
28    15    16    ar
29    15    33    1
30    16    17    1
31    16    19    ar
32    17    18    1
33    18    34    1
34    18    35    1
35    18    36    1
36    19    20    ar
37    19    37    1
38    20    21    1
39    22    23    ar
40    22    38    1
41    23    39    1
@<TRIPOS>SUBSTRUCTURE
1   ZINC000002566194 1     RESIDUE    1   A     ZIN   1
