@<TRIPOS>MOLECULE
ZINC000000006787
  29   30    0    0    0
SMALL
USER_CHARGES
NO_NAME
@<TRIPOS>ATOM
    1 O1       -0.0163     1.3543     0.0095 O.3    1 <0>      -0.5000
    2 C2        0.0021    -0.0041     0.0020 C.ar   1 <0>       0.1100
    3 C3        0.0057    -0.6897    -1.2060 C.ar   1 <0>      -0.1400
    4 C4        0.0244    -2.0675    -1.2186 C.ar   1 <0>      -0.0900
    5 C5        0.0397    -2.7751    -0.0132 C.ar   1 <0>      -0.0700
    6 C6        0.0601    -4.2484    -0.0213 C.2    1 <0>      -0.0900
    7 C7        0.0748    -4.9260     1.1377 C.2    1 <0>      -0.1100
    8 C8        0.0953    -6.3997     1.1296 C.ar   1 <0>      -0.0200
    9 C9        0.1053    -7.0937    -0.0826 C.ar   1 <0>      -0.1500
   10 C10       0.1250    -8.4782    -0.0849 C.ar   1 <0>       0.1300
   11 O11       0.1348    -9.1545    -1.2637 O.3    1 <0>      -0.5000
   12 C12       0.1353    -9.1763     1.1143 C.ar   1 <0>      -0.1700
   13 C13       0.1254    -8.4915     2.3212 C.ar   1 <0>       0.1300
   14 O14       0.1360    -9.1807     3.4924 O.3    1 <0>      -0.5000
   15 C15       0.1106    -7.1069     2.3341 C.ar   1 <0>      -0.1400
   16 C16       0.0359    -2.0807     1.1999 C.ar   1 <0>      -0.0900
   17 C17       0.0230    -0.7028     1.2023 C.ar   1 <0>      -0.1400
   18 H18       0.8616     1.7596     0.0033 H      1 <0>       0.3900
   19 H19      -0.0065    -0.1421    -2.1368 H      1 <0>       0.1300
   20 H20       0.0268    -2.5998    -2.1583 H      1 <0>       0.1300
   21 H21       0.0633    -4.7832    -0.9596 H      1 <0>       0.1300
   22 H22       0.0716    -4.3911     2.0760 H      1 <0>       0.1300
   23 H23       0.0973    -6.5513    -1.0164 H      1 <0>       0.1400
   24 H24       1.0209    -9.3377    -1.6047 H      1 <0>       0.3900
   25 H25       0.1507   -10.2562     1.1084 H      1 <0>       0.1400
   26 H26       1.0223    -9.3670     3.8312 H      1 <0>       0.3900
   27 H27       0.1029    -6.5748     3.2739 H      1 <0>       0.1400
   28 H28       0.0477    -2.6231     2.1337 H      1 <0>       0.1300
   29 H29       0.0204    -0.1653     2.1391 H      1 <0>       0.1300
@<TRIPOS>BOND
   1    1    2 1
   2    1   18 1
   3    2   17 ar
   4    2    3 ar
   5    3    4 ar
   6    3   19 1
   7    4    5 ar
   8    4   20 1
   9    5    6 1
  10    5   16 ar
  11    6    7 2
  12    6   21 1
  13    7    8 1
  14    7   22 1
  15    8   15 ar
  16    8    9 ar
  17    9   10 ar
  18    9   23 1
  19   10   11 1
  20   10   12 ar
  21   11   24 1
  22   12   13 ar
  23   12   25 1
  24   13   14 1
  25   13   15 ar
  26   14   26 1
  27   15   27 1
  28   16   17 ar
  29   16   28 1
  30   17   29 1
