@<TRIPOS>MOLECULE
ZINC000000006989
  40   41    0    0    0
SMALL
USER_CHARGES
NO_NAME
@<TRIPOS>ATOM
    1 C1       -0.0026     1.5247    -0.0037 C.3    1 <0>      -0.1900
    2 C2        0.0175    -0.0051    -0.0123 C.3    1 <0>       0.0300
    3 H3        0.5229    -0.3568    -0.9118 H      1 <0>       0.1400
    4 N4        0.7341    -0.4921     1.1741 N.4    1 <0>      -0.6400
    5 H5        0.2663    -0.1665     2.0067 H      1 <0>       0.4300
    6 H6        0.7473    -1.5010     1.1684 H      1 <0>       0.4300
    7 H7        1.6807    -0.1432     1.1619 H      1 <0>       0.4400
    8 C8       -1.4180    -0.5342     0.0061 C.3    1 <0>      -0.1100
    9 C9       -2.1642    -0.0271    -1.2296 C.3    1 <0>      -0.1300
   10 C10      -3.5997    -0.5561    -1.2112 C.3    1 <0>      -0.1000
   11 C11      -3.5796    -2.0860    -1.2198 C.3    1 <0>      -0.1100
   12 C12      -2.8809    -2.5722    -2.4633 C.2    1 <0>       0.5200
   13 O13      -2.4423    -1.7738    -3.2639 O.2    1 <0>      -0.5100
   14 N14      -2.7435    -3.8943    -2.6858 N.am   1 <0>      -0.6700
   15 C15      -2.1843    -4.3462    -3.8818 C.ar   1 <0>       0.1800
   16 C16      -1.1597    -3.6359    -4.5053 C.ar   1 <0>      -0.1800
   17 C17      -0.6336    -4.1162    -5.6867 C.ar   1 <0>       0.1200
   18 N18      -1.0884    -5.2317    -6.2256 N.ar   1 <0>      -0.4900
   19 C19      -2.0567    -5.9322    -5.6660 C.ar   1 <0>       0.1200
   20 C20      -2.6318    -5.5226    -4.4808 C.ar   1 <0>      -0.2000
   21 C21      -2.8333    -2.5931     0.0159 C.3    1 <0>      -0.1100
   22 C22      -1.3978    -2.0640    -0.0025 C.3    1 <0>      -0.1400
   23 H23       1.0201     1.9016    -0.0168 H      1 <0>       0.0800
   24 H24      -0.5343     1.8860    -0.8840 H      1 <0>       0.1100
   25 H25      -0.5080     1.8764     0.8957 H      1 <0>       0.0800
   26 H26      -1.9233    -0.1825     0.9055 H      1 <0>       0.1000
   27 H27      -2.1786     1.0628    -1.2235 H      1 <0>       0.0800
   28 H28      -1.6589    -0.3787    -2.1290 H      1 <0>       0.1000
   29 H29      -4.1051    -0.2044    -0.3117 H      1 <0>       0.0800
   30 H30      -4.1314    -0.1948    -2.0915 H      1 <0>       0.0800
   31 H31      -4.6023    -2.4629    -1.2067 H      1 <0>       0.1100
   32 H32      -3.0334    -4.5318    -2.0146 H      1 <0>       0.4100
   33 H33      -0.7832    -2.7221    -4.0698 H      1 <0>       0.1400
   34 H34       0.1602    -3.5722    -6.1769 H      1 <0>       0.1600
   35 H35      -2.4002    -6.8400    -6.1395 H      1 <0>       0.1600
   36 H36      -3.4239    -6.1006    -4.0281 H      1 <0>       0.1400
   37 H37      -3.3387    -2.2414     0.9153 H      1 <0>       0.0900
   38 H38      -2.8190    -3.6830     0.0098 H      1 <0>       0.0800
   39 H39      -0.8925    -2.4157    -0.9020 H      1 <0>       0.0800
   40 H40      -0.8662    -2.4253     0.8778 H      1 <0>       0.0600
@<TRIPOS>BOND
   1    1    2 1
   2    1   23 1
   3    1   24 1
   4    1   25 1
   5    2    3 1
   6    2    4 1
   7    2    8 1
   8    4    5 1
   9    4    6 1
  10    4    7 1
  11    8   22 1
  12    8    9 1
  13    8   26 1
  14    9   10 1
  15    9   27 1
  16    9   28 1
  17   10   11 1
  18   10   29 1
  19   10   30 1
  20   11   12 1
  21   11   21 1
  22   11   31 1
  23   12   13 2
  24   12   14 am
  25   14   15 1
  26   14   32 1
  27   15   20 ar
  28   15   16 ar
  29   16   17 ar
  30   16   33 1
  31   17   18 ar
  32   17   34 1
  33   18   19 ar
  34   19   20 ar
  35   19   35 1
  36   20   36 1
  37   21   22 1
  38   21   37 1
  39   21   38 1
  40   22   39 1
  41   22   40 1
