@<TRIPOS>MOLECULE
ZINC000035212842
  29   30    0    0    0
SMALL
USER_CHARGES
NO_NAME
@<TRIPOS>ATOM
    1 C1       -0.8716     1.4492    -0.0614 C.3    1 <0>      -0.1100
    2 C2       -0.4769    -0.0052    -0.0491 C.ar   1 <0>      -0.1100
    3 C3       -0.4109    -0.7062    -1.2256 C.ar   1 <0>      -0.0400
    4 C4       -0.0432    -2.0585    -1.2125 C.ar   1 <0>      -0.1200
    5 C5        0.0297    -2.8135    -2.4675 C.2    1 <0>       0.1000
    6 C6        0.5150    -2.2188    -3.5929 C.2    1 <0>      -0.3200
    7 C7        1.1714    -0.8953    -3.6962 C.2    1 <0>       0.4100
    8 O8        1.3834    -0.1217    -2.7840 O.2    1 <0>      -0.4100
    9 C9        1.5206    -0.6925    -5.1208 C.2    1 <0>      -0.1500
   10 C10       1.1389    -1.7486    -5.8434 C.2    1 <0>      -0.1500
   11 C11       0.5036    -2.7620    -4.9706 C.2    1 <0>       0.4200
   12 O12       0.0504    -3.8335    -5.3202 O.2    1 <0>      -0.4200
   13 C13       0.2550    -2.6864     0.0043 C.ar   1 <0>      -0.0700
   14 C14       0.1856    -1.9754     1.1746 C.ar   1 <0>      -0.1200
   15 C15       0.5060    -2.6491     2.4840 C.3    1 <0>      -0.1100
   16 C16      -0.1747    -0.6321     1.1551 C.ar   1 <0>       0.1300
   17 O17      -0.2413     0.0667     2.3163 O.3    1 <0>      -0.4900
   18 H18       0.0197     2.0666    -0.1730 H      1 <0>       0.0700
   19 H19      -1.5489     1.6348    -0.8950 H      1 <0>       0.0700
   20 H20      -1.3711     1.6980     0.8749 H      1 <0>       0.0700
   21 H21      -0.6421    -0.2174    -2.1604 H      1 <0>       0.1300
   22 H22      -0.3014    -3.8410    -2.4996 H      1 <0>       0.1500
   23 H23       2.0124     0.1831    -5.5181 H      1 <0>       0.1600
   24 H24       1.2775    -1.8506    -6.9096 H      1 <0>       0.1700
   25 H25       0.5386    -3.7284     0.0203 H      1 <0>       0.1300
   26 H26       1.5700    -2.5442     2.6958 H      1 <0>       0.0700
   27 H27      -0.0711    -2.1835     3.2829 H      1 <0>       0.0800
   28 H28       0.2507    -3.7068     2.4204 H      1 <0>       0.0700
   29 H29       0.5888     0.4959     2.5652 H      1 <0>       0.3900
@<TRIPOS>BOND
   1    1    2 1
   2    1   18 1
   3    1   19 1
   4    1   20 1
   5    2   16 ar
   6    2    3 ar
   7    3    4 ar
   8    3   21 1
   9    4    5 1
  10    4   13 ar
  11    5    6 2
  12    5   22 1
  13    6   11 1
  14    6    7 1
  15    7    8 2
  16    7    9 1
  17    9   10 2
  18    9   23 1
  19   10   11 1
  20   10   24 1
  21   11   12 2
  22   13   14 ar
  23   13   25 1
  24   14   15 1
  25   14   16 ar
  26   15   26 1
  27   15   27 1
  28   15   28 1
  29   16   17 1
  30   17   29 1
