@<TRIPOS>MOLECULE
ZINC000000033976
21    22    1     0     0
SMALL
USER_CHARGES
@<TRIPOS>ATOM
1      O1      0.0021   -0.0041    0.0020 O.2      1 ZINC000000033976   -0.1700
2      N2     -0.0144    1.2138    0.0087 N.pl3    1 ZINC000000033976    0.0200
3      O3      1.0320    1.8371    0.0021 O.2      1 ZINC000000033976   -0.1600
4      C4     -1.3064    1.9365    0.0188 C.2      1 ZINC000000033976   -0.1100
5      C5     -2.4456    1.2580    0.0205 C.2      1 ZINC000000033976    0.0200
6      C6     -3.7353    1.9794    0.0305 C.ar     1 ZINC000000033976   -0.0800
7      C7     -3.7562    3.3744    0.0324 C.ar     1 ZINC000000033976   -0.0800
8      C8     -4.9611    4.0464    0.0418 C.ar     1 ZINC000000033976   -0.1000
9      C9     -6.1542    3.3396    0.0495 C.ar     1 ZINC000000033976    0.0600
10     O10    -7.4526    3.7613    0.0598 O.3      1 ZINC000000033976   -0.3000
11     C11    -8.2308    2.6211   -0.3489 C.3      1 ZINC000000033976    0.2100
12     O12    -7.4292    1.4960    0.0566 O.3      1 ZINC000000033976   -0.3000
13     C13    -6.1399    1.9451    0.0476 C.ar     1 ZINC000000033976    0.0300
14     C14    -4.9355    1.2668    0.0323 C.ar     1 ZINC000000033976   -0.0600
15     H15    -1.3211    3.0164    0.0247 H        1 ZINC000000033976    0.1900
16     H16    -2.4310    0.1781    0.0145 H        1 ZINC000000033976    0.1600
17     H17    -2.8291    3.9284    0.0269 H        1 ZINC000000033976    0.1500
18     H18    -4.9752    5.1263    0.0436 H        1 ZINC000000033976    0.1500
19     H19    -9.1928    2.6105    0.1636 H        1 ZINC000000033976    0.1400
20     H20    -8.3717    2.6212   -1.4298 H        1 ZINC000000033976    0.0900
21     H21    -4.9232    0.1869    0.0250 H        1 ZINC000000033976    0.1500
@<TRIPOS>BOND
1     1     2     2
2     2     3     2
3     2     4     1
4     4     5     2
5     4     15    1
6     5     6     1
7     5     16    1
8     6     14    ar
9     6     7     ar
10    7     8     ar
11    7     17    1
12    8     9     ar
13    8     18    1
14    9     13    ar
15    9     10    1
16    10    11    1
17    11    12    1
18    11    19    1
19    11    20    1
20    12    13    1
21    13    14    ar
22    14    21    1
@<TRIPOS>SUBSTRUCTURE
1   ZINC000000033976 1     RESIDUE    1   A     ZIN   1
