@<TRIPOS>MOLECULE
ZINC000008609936
40    43    1     0     0
SMALL
USER_CHARGES
@<TRIPOS>ATOM
1      C1     -0.0181    1.5023    0.0167 C.3      1 ZINC000008609936   -0.1100
2      C2      0.0021   -0.0045   -0.0017 C.2      1 ZINC000008609936    0.2700
3      C3     -1.1631   -0.6682   -0.0017 C.2      1 ZINC000008609936   -0.3100
4      C4     -2.3644    0.0791    0.0039 C.2      1 ZINC000008609936    0.5900
5      O5     -2.3244    1.2962    0.0084 O.2      1 ZINC000008609936   -0.5300
6      N6     -3.5531   -0.5561    0.0041 N.am     1 ZINC000008609936   -0.6700
7      C7     -4.7385    0.1786    0.1077 C.ar     1 ZINC000008609936    0.1500
8      C8     -5.8189   -0.3389    0.8106 C.ar     1 ZINC000008609936   -0.1400
9      C9     -6.9881    0.3893    0.9109 C.ar     1 ZINC000008609936   -0.1000
10     C10    -7.0840    1.6321    0.3122 C.ar     1 ZINC000008609936   -0.1400
11     C11    -6.0103    2.1500   -0.3887 C.ar     1 ZINC000008609936   -0.1000
12     C12    -4.8360    1.4298   -0.4873 C.ar     1 ZINC000008609936   -0.1200
13     C13    -1.2532   -2.1709   -0.0077 C.3      1 ZINC000008609936    0.3000
14     H14    -1.9651   -2.4893   -0.7693 H        1 ZINC000008609936    0.1000
15     C15    -1.7147   -2.6520    1.3439 C.2      1 ZINC000008609936   -0.0200
16     C16    -1.4058   -2.0909    2.5305 C.2      1 ZINC000008609936   -0.1500
17     C17    -2.0402   -2.8499    3.5338 C.2      1 ZINC000008609936   -0.2000
18     C18    -2.7127   -3.8458    2.9220 C.2      1 ZINC000008609936    0.0100
19     N19    -2.5214   -3.7261    1.5773 N.pl3    1 ZINC000008609936   -0.5500
20     N20     0.0607   -2.7357   -0.3029 N.pl3    1 ZINC000008609936   -0.3900
21     N21     0.4184   -4.0427   -0.6296 N.2      1 ZINC000008609936   -0.3000
22     C22     1.7181   -4.0481   -0.7960 C.2      1 ZINC000008609936    0.2200
23     N23     2.1922   -2.8147   -0.5930 N.2      1 ZINC000008609936   -0.5500
24     C24     1.2074   -2.0114   -0.2978 C.2      1 ZINC000008609936    0.5000
25     N25     1.2133   -0.6517   -0.0237 N.pl3    1 ZINC000008609936   -0.6000
26     H26     1.0045    1.8795    0.0094 H        1 ZINC000008609936    0.0700
27     H27    -0.5471    1.8693   -0.8628 H        1 ZINC000008609936    0.1100
28     H28    -0.5264    1.8478    0.9169 H        1 ZINC000008609936    0.1100
29     H29    -3.5864   -1.5229   -0.0676 H        1 ZINC000008609936    0.4000
30     H30    -5.7448   -1.3097    1.2778 H        1 ZINC000008609936    0.1200
31     H31    -7.8285   -0.0125    1.4574 H        1 ZINC000008609936    0.1200
32     H32    -7.9996    2.1993    0.3919 H        1 ZINC000008609936    0.1200
33     H33    -6.0886    3.1207   -0.8555 H        1 ZINC000008609936    0.1300
34     H34    -3.9978    1.8348   -1.0349 H        1 ZINC000008609936    0.1400
35     H35    -0.7857   -1.2200    2.6838 H        1 ZINC000008609936    0.1300
36     H36    -1.9958   -2.6677    4.5974 H        1 ZINC000008609936    0.1400
37     H37    -3.3042   -4.6049    3.4122 H        1 ZINC000008609936    0.1700
38     H38    -2.8924   -4.3122    0.8993 H        1 ZINC000008609936    0.4200
39     H39     2.3120   -4.9120   -1.0556 H        1 ZINC000008609936    0.2300
40     H40     2.0410   -0.1760    0.1484 H        1 ZINC000008609936    0.4400
@<TRIPOS>BOND
1     1     2     1
2     1     26    1
3     1     27    1
4     1     28    1
5     2     25    1
6     2     3     2
7     3     4     1
8     3     13    1
9     4     5     2
10    4     6     am
11    6     7     1
12    6     29    1
13    7     12    ar
14    7     8     ar
15    8     9     ar
16    8     30    1
17    9     10    ar
18    9     31    1
19    10    11    ar
20    10    32    1
21    11    12    ar
22    11    33    1
23    12    34    1
24    13    14    1
25    13    15    1
26    13    20    1
27    15    19    1
28    15    16    2
29    16    17    1
30    16    35    1
31    17    18    2
32    17    36    1
33    18    19    1
34    18    37    1
35    19    38    1
36    20    24    1
37    20    21    1
38    21    22    2
39    22    23    1
40    22    39    1
41    23    24    2
42    24    25    1
43    25    40    1
@<TRIPOS>SUBSTRUCTURE
1   ZINC000008609936 1     RESIDUE    1   A     ZIN   1
