@<TRIPOS>MOLECULE
ZINC000002144682
29    31    1     0     0
SMALL
USER_CHARGES
@<TRIPOS>ATOM
1      C1     -0.0137    1.3821    0.0617 C.ar     1 ZINC000002144682   -0.1400
2      C2      0.0994    0.1416    0.6623 C.ar     1 ZINC000002144682   -0.0900
3      C3      1.3030   -0.5348    0.6321 C.ar     1 ZINC000002144682   -0.1300
4      C4      2.4009    0.0324   -0.0026 C.ar     1 ZINC000002144682    0.1600
5      N5      3.6205   -0.6496   -0.0354 N.pl3    1 ZINC000002144682   -0.6100
6      C6      3.6442   -2.0278    0.0613 C.2      1 ZINC000002144682    0.4100
7      N7      2.6006   -2.8235    0.0736 N.2      1 ZINC000002144682   -0.3200
8      N8      2.9940   -4.0442    0.1746 N.2      1 ZINC000002144682   -0.2500
9      C9      4.3032   -4.0766    0.2308 C.2      1 ZINC000002144682    0.1900
10     C10     5.1441   -5.2858    0.3488 C.ar     1 ZINC000002144682   -0.0200
11     C11     6.5343   -5.1704    0.4035 C.ar     1 ZINC000002144682   -0.0900
12     C12     7.3135   -6.3034    0.5141 C.ar     1 ZINC000002144682   -0.1200
13     C13     6.7202   -7.5521    0.5703 C.ar     1 ZINC000002144682   -0.1000
14     C14     5.3429   -7.6736    0.5162 C.ar     1 ZINC000002144682   -0.1200
15     C15     4.5517   -6.5484    0.4118 C.ar     1 ZINC000002144682   -0.0700
16     O16     4.7424   -2.8010    0.1544 O.3      1 ZINC000002144682   -0.2400
17     C17     2.2838    1.2787   -0.6048 C.ar     1 ZINC000002144682   -0.1500
18     C18     1.0772    1.9497   -0.5709 C.ar     1 ZINC000002144682   -0.0900
19     H19    -0.9574    1.9069    0.0829 H        1 ZINC000002144682    0.1300
20     H20    -0.7545   -0.2986    1.1558 H        1 ZINC000002144682    0.1300
21     H21     1.3908   -1.5034    1.1016 H        1 ZINC000002144682    0.1400
22     H22     4.4502   -0.1554   -0.1261 H        1 ZINC000002144682    0.4300
23     H23     6.9987   -4.1964    0.3589 H        1 ZINC000002144682    0.1300
24     H24     8.3891   -6.2156    0.5565 H        1 ZINC000002144682    0.1300
25     H25     7.3348   -8.4359    0.6566 H        1 ZINC000002144682    0.1300
26     H26     4.8862   -8.6513    0.5602 H        1 ZINC000002144682    0.1400
27     H27     3.4768   -6.6446    0.3696 H        1 ZINC000002144682    0.1400
28     H28     3.1355    1.7227   -1.0987 H        1 ZINC000002144682    0.1300
29     H29     0.9854    2.9185   -1.0392 H        1 ZINC000002144682    0.1300
@<TRIPOS>BOND
1     1     18    ar
2     1     2     ar
3     1     19    1
4     2     3     ar
5     2     20    1
6     3     4     ar
7     3     21    1
8     4     5     1
9     4     17    ar
10    5     6     1
11    5     22    1
12    6     16    1
13    6     7     2
14    7     8     1
15    8     9     2
16    9     10    1
17    9     16    1
18    10    15    ar
19    10    11    ar
20    11    12    ar
21    11    23    1
22    12    13    ar
23    12    24    1
24    13    14    ar
25    13    25    1
26    14    15    ar
27    14    26    1
28    15    27    1
29    17    18    ar
30    17    28    1
31    18    29    1
@<TRIPOS>SUBSTRUCTURE
1   ZINC000002144682 1     RESIDUE    1   A     ZIN   1
