@<TRIPOS>MOLECULE
ZINC000000075408
25    26    1     0     0
SMALL
USER_CHARGES
@<TRIPOS>ATOM
1      C1      0.0508    1.4647   -0.4582 C.3      1 ZINC000000075408   -0.0800
2      C2      0.0326   -0.0208   -0.2055 C.2      1 ZINC000000075408   -0.0100
3      C3     -1.0223   -0.8529   -0.3585 C.2      1 ZINC000000075408   -0.1800
4      C4     -2.4178   -0.5092   -0.8117 C.3      1 ZINC000000075408    0.1500
5      O5     -2.4632   -0.4879   -2.2398 O.3      1 ZINC000000075408   -0.5700
6      C6     -0.5084   -2.1286    0.0069 C.2      1 ZINC000000075408    0.0600
7      C7     -1.2458   -3.4162    0.0216 C.ar     1 ZINC000000075408    0.0000
8      C8     -2.3889   -3.5592    0.8070 C.ar     1 ZINC000000075408   -0.0100
9      Cl9    -2.9541   -2.2304    1.7705 Cl       1 ZINC000000075408   -0.0400
10     C10    -3.0711   -4.7605    0.8165 C.ar     1 ZINC000000075408   -0.1100
11     C11    -2.6223   -5.8199    0.0491 C.ar     1 ZINC000000075408   -0.0800
12     C12    -1.4888   -5.6843   -0.7317 C.ar     1 ZINC000000075408   -0.1000
13     C13    -0.8016   -4.4861   -0.7544 C.ar     1 ZINC000000075408    0.0000
14     Cl14    0.6206   -4.3176   -1.7356 Cl       1 ZINC000000075408   -0.0400
15     N15     0.7474   -1.9367    0.3273 N.2      1 ZINC000000075408   -0.3300
16     O16     1.0606   -0.7749    0.2091 O.3      1 ZINC000000075408    0.1100
17     H17     1.0466    1.8563   -0.2508 H        1 ZINC000000075408    0.0900
18     H18    -0.2066    1.6594   -1.4993 H        1 ZINC000000075408    0.1000
19     H19    -0.6745    1.9529    0.1928 H        1 ZINC000000075408    0.0900
20     H20    -3.1162   -1.2576   -0.4371 H        1 ZINC000000075408    0.0600
21     H21    -2.6943    0.4716   -0.4247 H        1 ZINC000000075408    0.0600
22     H22    -3.3335   -0.2729   -2.6025 H        1 ZINC000000075408    0.3800
23     H23    -3.9565   -4.8727    1.4247 H        1 ZINC000000075408    0.1500
24     H24    -3.1590   -6.7571    0.0598 H        1 ZINC000000075408    0.1500
25     H25    -1.1428   -6.5154   -1.3283 H        1 ZINC000000075408    0.1500
@<TRIPOS>BOND
1     1     2     1
2     1     17    1
3     1     18    1
4     1     19    1
5     2     16    1
6     2     3     2
7     3     4     1
8     3     6     1
9     4     5     1
10    4     20    1
11    4     21    1
12    5     22    1
13    6     7     1
14    6     15    2
15    7     13    ar
16    7     8     ar
17    8     9     1
18    8     10    ar
19    10    11    ar
20    10    23    1
21    11    12    ar
22    11    24    1
23    12    13    ar
24    12    25    1
25    13    14    1
26    15    16    1
@<TRIPOS>SUBSTRUCTURE
1   ZINC000000075408 1     RESIDUE    1   A     ZIN   1
