@<TRIPOS>MOLECULE
ZINC000003939511
  51   54    0    0    0
SMALL
NO_CHARGES
@<TRIPOS>ATOM
   1 C1            -0.0173     1.4248     0.0099 C.3     
   2 O2             0.0021    -0.0041     0.0020 O.3     
   3 C3            -1.2015    -0.6381     0.0101 C.ar    
   4 C4            -1.2511    -2.0332     0.0089 C.ar    
   5 O5            -0.0963    -2.7517    -0.0008 O.3     
   6 C6            -0.2180    -4.1755    -0.0015 C.3     
   7 C7            -2.4686    -2.6876     0.0180 C.ar    
   8 C8            -3.6468    -1.9547     0.0279 C.ar    
   9 C9            -3.6027    -0.5508     0.0287 C.ar    
  10 C10           -2.3661     0.1011     0.0252 C.ar    
  11 N11           -4.8891    -0.1124     0.0392 N.2     
  12 C12           -5.6999    -1.1293     0.0448 C.2     
  13 N13           -4.9894    -2.2942     0.0382 N.pl3   
  14 C14           -5.5155    -3.5826     0.0413 C.2     
  15 C15           -6.4614    -4.0287     0.8911 C.2     
  16 C16           -6.8343    -5.3400     0.7122 C.2     
  17 O17           -7.7736    -5.9497     1.4800 O.3     
  18 C18           -8.3797    -5.1650     2.5090 C.3     
  19 C19           -9.3888    -6.0028     3.2511 C.ar    
  20 C20           -9.5925    -7.3211     2.8892 C.ar    
  21 C21          -10.5183    -8.0897     3.5700 C.ar    
  22 C22          -11.2399    -7.5400     4.6128 C.ar    
  23 C23          -11.0356    -6.2216     4.9754 C.ar    
  24 C24          -10.1069    -5.4544     4.2976 C.ar    
  25 C25           -9.8841    -4.0173     4.6928 C.3     
  26 F26          -10.7259    -3.6918     5.7617 F       
  27 F27           -8.5510    -3.8411     5.0787 F       
  28 F28          -10.1687    -3.1850     3.6049 F       
  29 C29           -6.1765    -5.9806    -0.3089 C.2     
  30 C30           -6.3780    -7.3252    -0.6934 C.2     
  31 N31           -5.6711    -7.8470    -1.7154 N.am    
  32 O32           -7.1907    -8.0129    -0.1011 O.2     
  33 S33           -5.0490    -4.8644    -1.0676 S.3     
  34 H34            1.0053     1.8021     0.0021 H       
  35 H35           -0.5445     1.7859    -0.8732 H       
  36 H36           -0.5275     1.7763     0.9067 H       
  37 H37           -0.7541    -4.4948     0.8923 H       
  38 H38           -0.7678    -4.4928    -0.8876 H       
  39 H39            0.7749    -4.6251    -0.0096 H       
  40 H40           -2.5028    -3.7671     0.0170 H       
  41 H41           -2.3227     1.1802     0.0258 H       
  42 H42           -6.7778    -1.0616     0.0536 H       
  43 H43           -6.8947    -3.4022     1.6567 H       
  44 H44           -7.6127    -4.8208     3.2028 H       
  45 H45           -8.8790    -4.3047     2.0634 H       
  46 H46           -9.0286    -7.7507     2.0744 H       
  47 H47          -10.6780    -9.1196     3.2868 H       
  48 H48          -11.9637    -8.1402     5.1442 H       
  49 H49          -11.5996    -5.7919     5.7900 H       
  50 H50           -5.0240    -7.2994    -2.1870 H       
  51 H51           -5.8093    -8.7701    -1.9794 H       
@<TRIPOS>BOND
   1    1    2 1
   2    1   34 1
   3    1   35 1
   4    1   36 1
   5    2    3 1
   6    3   10 ar
   7    3    4 ar
   8    4    5 1
   9    4    7 ar
  10    5    6 1
  11    6   37 1
  12    6   38 1
  13    6   39 1
  14    7    8 ar
  15    7   40 1
  16    8   13 1
  17    8    9 ar
  18    9   10 ar
  19    9   11 1
  20   10   41 1
  21   11   12 2
  22   12   13 1
  23   12   42 1
  24   13   14 1
  25   14   33 1
  26   14   15 2
  27   15   16 1
  28   15   43 1
  29   16   17 1
  30   16   29 2
  31   17   18 1
  32   18   19 1
  33   18   44 1
  34   18   45 1
  35   19   24 ar
  36   19   20 ar
  37   20   21 ar
  38   20   46 1
  39   21   22 ar
  40   21   47 1
  41   22   23 ar
  42   22   48 1
  43   23   24 ar
  44   23   49 1
  45   24   25 1
  46   25   26 1
  47   25   27 1
  48   25   28 1
  49   29   30 1
  50   29   33 1
  51   30   31 am
  52   30   32 2
  53   31   50 1
  54   31   51 1
