@<TRIPOS>MOLECULE
ZINC000017949075
39    42    1     0     0
SMALL
USER_CHARGES
@<TRIPOS>ATOM
1      C1     -7.7784   -2.8588   -7.3070 C.3      1 ZINC000017949075    0.0300
2      O2     -6.6537   -2.2771   -6.6445 O.3      1 ZINC000017949075   -0.3200
3      C3     -6.5429   -2.4977   -5.3081 C.ar     1 ZINC000017949075    0.1200
4      C4     -7.4966   -3.2644   -4.6517 C.ar     1 ZINC000017949075   -0.1900
5      C5     -7.3882   -3.4907   -3.2962 C.ar     1 ZINC000017949075   -0.0500
6      C6     -6.3167   -2.9479   -2.5831 C.ar     1 ZINC000017949075    0.0500
7      N7     -6.2048   -3.1705   -1.2373 N.2      1 ZINC000017949075   -0.4600
8      C8     -5.1024   -3.6676   -0.7477 C.2      1 ZINC000017949075    0.2100
9      C9     -4.0370   -4.1207   -1.6505 C.ar     1 ZINC000017949075   -0.1700
10     C10    -2.7356   -3.6194   -1.5119 C.ar     1 ZINC000017949075    0.1600
11     O11    -2.4603   -2.7132   -0.5400 O.3      1 ZINC000017949075   -0.4900
12     C12    -1.7273   -4.0466   -2.3645 C.ar     1 ZINC000017949075   -0.1800
13     C13    -1.9974   -4.9672   -3.3552 C.ar     1 ZINC000017949075   -0.0300
14     C14    -3.2852   -5.4756   -3.5076 C.ar     1 ZINC000017949075   -0.1200
15     C15    -4.3158   -5.0642   -2.6551 C.ar     1 ZINC000017949075    0.1400
16     O16    -5.4508   -5.6997   -3.0127 O.3      1 ZINC000017949075   -0.1900
17     C17    -5.2478   -6.5236   -4.0654 C.ar     1 ZINC000017949075   -0.0400
18     C18    -3.8989   -6.4445   -4.4367 C.ar     1 ZINC000017949075   -0.0500
19     C19    -3.4181   -7.1987   -5.5029 C.ar     1 ZINC000017949075   -0.1300
20     Cl20   -1.7461   -7.0978   -5.9589 Cl       1 ZINC000017949075   -0.0900
21     C21    -4.2794   -8.0302   -6.1978 C.ar     1 ZINC000017949075    0.2800
22     O22    -3.8163   -8.7707   -7.2407 O.3      1 ZINC000017949075   -0.6700
23     C23    -5.6182   -8.1089   -5.8294 C.ar     1 ZINC000017949075   -0.1200
24     Cl24   -6.6922   -9.1540   -6.7057 Cl       1 ZINC000017949075   -0.0800
25     C25    -6.0987   -7.3664   -4.7704 C.ar     1 ZINC000017949075   -0.0500
26     C26    -5.3594   -2.1778   -3.2477 C.ar     1 ZINC000017949075   -0.0900
27     C27    -5.4732   -1.9606   -4.6042 C.ar     1 ZINC000017949075   -0.1400
28     H28    -7.7463   -2.6063   -8.3669 H        1 ZINC000017949075    0.1000
29     H29    -7.7484   -3.9421   -7.1905 H        1 ZINC000017949075    0.0600
30     H30    -8.6983   -2.4716   -6.8690 H        1 ZINC000017949075    0.0500
31     H31    -8.3247   -3.6836   -5.2038 H        1 ZINC000017949075    0.1300
32     H32    -8.1308   -4.0865   -2.7863 H        1 ZINC000017949075    0.1300
33     H33    -4.9735   -3.7458    0.3217 H        1 ZINC000017949075    0.1700
34     H34    -2.2603   -3.1073    0.3201 H        1 ZINC000017949075    0.3900
35     H35    -0.7267   -3.6561   -2.2519 H        1 ZINC000017949075    0.1400
36     H36    -1.2079   -5.2948   -4.0153 H        1 ZINC000017949075    0.1300
37     H37    -7.1401   -7.4355   -4.4927 H        1 ZINC000017949075    0.1200
38     H38    -4.5293   -1.7562   -2.7003 H        1 ZINC000017949075    0.1300
39     H39    -4.7334   -1.3655   -5.1190 H        1 ZINC000017949075    0.1300
@<TRIPOS>BOND
1     1     2     1
2     1     28    1
3     1     29    1
4     1     30    1
5     2     3     1
6     3     27    ar
7     3     4     ar
8     4     5     ar
9     4     31    1
10    5     6     ar
11    5     32    1
12    6     7     1
13    6     26    ar
14    7     8     2
15    8     9     1
16    8     33    1
17    9     15    ar
18    9     10    ar
19    10    11    1
20    10    12    ar
21    11    34    1
22    12    13    ar
23    12    35    1
24    13    14    ar
25    13    36    1
26    14    18    1
27    14    15    ar
28    15    16    1
29    16    17    1
30    17    25    ar
31    17    18    ar
32    18    19    ar
33    19    20    1
34    19    21    ar
35    21    22    1
36    21    23    ar
37    23    24    1
38    23    25    ar
39    25    37    1
40    26    27    ar
41    26    38    1
42    27    39    1
@<TRIPOS>SUBSTRUCTURE
1   ZINC000017949075 1     RESIDUE    1   A     ZIN   1
