@<TRIPOS>MOLECULE
ZINC000004473160
  23   24    0    0    0
SMALL
USER_CHARGES
NO_NAME
@<TRIPOS>ATOM
    1 N1        0.5037     0.8892     2.1759 N.2    1 <0>      -0.6600
    2 C2        0.4473    -0.3490     1.7690 C.2    1 <0>       0.4100
    3 N3       -0.4273    -1.3121     2.1987 N.am   1 <0>      -0.6500
    4 C4       -0.3438    -2.5238     1.6754 C.2    1 <0>       0.5600
    5 O5       -1.0865    -3.4290     2.0074 O.2    1 <0>      -0.4700
    6 C6        0.7058    -2.7001     0.6667 C.2    1 <0>      -0.2200
    7 C7        1.0113    -3.8265    -0.0251 C.2    1 <0>       0.0700
    8 C8        0.1383    -5.0041     0.0665 C.ar   1 <0>      -0.1100
    9 C9       -1.2533    -4.8492     0.0623 C.ar   1 <0>      -0.0300
   10 C10      -2.0669    -5.9565     0.1485 C.ar   1 <0>      -0.1500
   11 C11      -1.5092    -7.2264     0.2400 C.ar   1 <0>       0.1300
   12 O12      -2.3162    -8.3151     0.3248 O.3    1 <0>      -0.5000
   13 C13      -0.1284    -7.3861     0.2447 C.ar   1 <0>      -0.1600
   14 C14       0.6946    -6.2861     0.1526 C.ar   1 <0>      -0.0700
   15 S15       1.4820    -1.1093     0.5478 S.3    1 <0>      -0.0400
   16 H16       1.1633     1.4934     1.8008 H      1 <0>       0.3700
   17 H17      -1.0941    -1.1094     2.8734 H      1 <0>       0.4300
   18 H18       1.8964    -3.8572    -0.6433 H      1 <0>       0.1600
   19 H19      -1.6876    -3.8629    -0.0080 H      1 <0>       0.1300
   20 H20      -3.1404    -5.8382     0.1454 H      1 <0>       0.1300
   21 H21      -2.5543    -8.6958    -0.5316 H      1 <0>       0.3900
   22 H22       0.2996    -8.3750     0.3163 H      1 <0>       0.1300
   23 H23       1.7673    -6.4113     0.1560 H      1 <0>       0.1300
@<TRIPOS>BOND
   1    1    2 2
   2    1   16 1
   3    2   15 1
   4    2    3 1
   5    3    4 am
   6    3   17 1
   7    4    5 2
   8    4    6 1
   9    6    7 2
  10    6   15 1
  11    7    8 1
  12    7   18 1
  13    8   14 ar
  14    8    9 ar
  15    9   10 ar
  16    9   19 1
  17   10   11 ar
  18   10   20 1
  19   11   12 1
  20   11   13 ar
  21   12   21 1
  22   13   14 ar
  23   13   22 1
  24   14   23 1
