@<TRIPOS>MOLECULE
ZINC000043196009
67    68    1     0     0
SMALL
USER_CHARGES
@<TRIPOS>ATOM
1      C1      3.6219   -8.5553   -1.6105 C.3      1 ZINC000043196009   -0.0500
2      N2      2.7046   -7.4410   -1.3369 N.4      1 ZINC000043196009   -0.3900
3      H3      2.9059   -7.0555   -0.4265 H        1 ZINC000043196009    0.4300
4      C4      2.8798   -6.4004   -2.3589 C.3      1 ZINC000043196009   -0.0500
5      C5      1.3192   -7.9285   -1.3668 C.3      1 ZINC000043196009   -0.0100
6      C6      0.3719   -6.7981   -0.9600 C.3      1 ZINC000043196009   -0.1500
7      C7     -1.0711   -7.3058   -0.9911 C.3      1 ZINC000043196009   -0.1000
8      C8     -2.0184   -6.1754   -0.5842 C.3      1 ZINC000043196009   -0.1400
9      C9     -3.4397   -6.6755   -0.6149 C.2      1 ZINC000043196009    0.5100
10     O10    -3.6720   -7.8232   -0.9312 O.2      1 ZINC000043196009   -0.5200
11     N11    -4.4526   -5.8475   -0.2910 N.am     1 ZINC000043196009   -0.6700
12     C12    -5.7775   -6.2940   -0.3784 C.ar     1 ZINC000043196009    0.1400
13     C13    -6.7779   -5.4233   -0.7902 C.ar     1 ZINC000043196009   -0.1400
14     C14    -8.0836   -5.8631   -0.8759 C.ar     1 ZINC000043196009   -0.0500
15     C15    -8.3967   -7.1765   -0.5506 C.ar     1 ZINC000043196009    0.1100
16     N16    -9.7212   -7.6228   -0.6379 N.am     1 ZINC000043196009   -0.6200
17     C17   -10.4747   -7.2921   -1.7053 C.2      1 ZINC000043196009    0.5100
18     S18    -9.8451   -6.2482   -2.9072 S.2      1 ZINC000043196009   -0.4900
19     N19   -11.7240   -7.7832   -1.8264 N.am     1 ZINC000043196009   -0.6400
20     C20   -12.4776   -7.4525   -2.8937 C.2      1 ZINC000043196009    0.5400
21     O21   -12.0307   -6.7114   -3.7469 O.2      1 ZINC000043196009   -0.4000
22     C22   -13.8473   -7.9909   -3.0265 C.ar     1 ZINC000043196009   -0.1500
23     C23   -14.3659   -8.8379   -2.0452 C.ar     1 ZINC000043196009   -0.0900
24     C24   -15.6455   -9.3366   -2.1751 C.ar     1 ZINC000043196009   -0.1200
25     C25   -16.4144   -8.9996   -3.2750 C.ar     1 ZINC000043196009   -0.0300
26     C26   -17.8114   -9.5483   -3.4101 C.3      1 ZINC000043196009   -0.0400
27     C27   -18.6541   -9.0976   -2.2153 C.3      1 ZINC000043196009   -0.1400
28     C28   -18.4410   -9.0275   -4.7037 C.3      1 ZINC000043196009   -0.1500
29     C29   -17.7575  -11.0769   -3.4486 C.3      1 ZINC000043196009   -0.1400
30     C30   -15.9065   -8.1607   -4.2512 C.ar     1 ZINC000043196009   -0.1300
31     C31   -14.6306   -7.6503   -4.1308 C.ar     1 ZINC000043196009   -0.0500
32     C32    -7.3961   -8.0473   -0.1392 C.ar     1 ZINC000043196009   -0.1000
33     C33    -6.0896   -7.6088   -0.0586 C.ar     1 ZINC000043196009   -0.1100
34     H34     4.6499   -8.1936   -1.5883 H        1 ZINC000043196009    0.1200
35     H35     3.4920   -9.3275   -0.8522 H        1 ZINC000043196009    0.1200
36     H36     3.4044   -8.9718   -2.5941 H        1 ZINC000043196009    0.1200
37     H37     2.6623   -6.8169   -3.3425 H        1 ZINC000043196009    0.1200
38     H38     2.1992   -5.5736   -2.1559 H        1 ZINC000043196009    0.1200
39     H39     3.9077   -6.0387   -2.3367 H        1 ZINC000043196009    0.1200
40     H40     1.0736   -8.2634   -2.3746 H        1 ZINC000043196009    0.1300
41     H41     1.2118   -8.7607   -0.6711 H        1 ZINC000043196009    0.1300
42     H42     0.6175   -6.4632    0.0478 H        1 ZINC000043196009    0.0900
43     H43     0.4793   -5.9659   -1.6556 H        1 ZINC000043196009    0.0900
44     H44    -1.3167   -7.6407   -1.9989 H        1 ZINC000043196009    0.0800
45     H45    -1.1785   -8.1380   -0.2954 H        1 ZINC000043196009    0.0800
46     H46    -1.7728   -5.8405    0.4236 H        1 ZINC000043196009    0.1000
47     H47    -1.9110   -5.3432   -1.2799 H        1 ZINC000043196009    0.1000
48     H48    -4.2641   -4.9424    0.0026 H        1 ZINC000043196009    0.4100
49     H49    -6.5344   -4.4020   -1.0431 H        1 ZINC000043196009    0.1300
50     H50    -8.8617   -5.1858   -1.1955 H        1 ZINC000043196009    0.1500
51     H51   -10.0962   -8.1700    0.0697 H        1 ZINC000043196009    0.4100
52     H52   -12.0807   -8.3747   -1.1453 H        1 ZINC000043196009    0.4100
53     H53   -13.7666   -9.1022   -1.1865 H        1 ZINC000043196009    0.1200
54     H54   -16.0479   -9.9919   -1.4168 H        1 ZINC000043196009    0.1300
55     H55   -18.6926   -8.0086   -2.1879 H        1 ZINC000043196009    0.0600
56     H56   -19.6646   -9.4945   -2.3131 H        1 ZINC000043196009    0.0600
57     H57   -18.2056   -9.4686   -1.2938 H        1 ZINC000043196009    0.0600
58     H58   -17.8406   -9.3486   -5.5549 H        1 ZINC000043196009    0.0600
59     H59   -19.4514   -9.4244   -4.8014 H        1 ZINC000043196009    0.0600
60     H60   -18.4794   -7.9386   -4.6763 H        1 ZINC000043196009    0.0600
61     H61   -17.3089  -11.4479   -2.5270 H        1 ZINC000043196009    0.0600
62     H62   -18.7679  -11.4738   -3.5463 H        1 ZINC000043196009    0.0600
63     H63   -17.1571  -11.3980   -4.2998 H        1 ZINC000043196009    0.0600
64     H64   -16.5118   -7.9019   -5.1074 H        1 ZINC000043196009    0.1400
65     H65   -14.2355   -6.9953   -4.8932 H        1 ZINC000043196009    0.1400
66     H66    -7.6396   -9.0686    0.1141 H        1 ZINC000043196009    0.1300
67     H67    -5.3115   -8.2860    0.2614 H        1 ZINC000043196009    0.1400
@<TRIPOS>BOND
1     1     2     1
2     1     34    1
3     1     35    1
4     1     36    1
5     2     3     1
6     2     4     1
7     2     5     1
8     4     37    1
9     4     38    1
10    4     39    1
11    5     6     1
12    5     40    1
13    5     41    1
14    6     7     1
15    6     42    1
16    6     43    1
17    7     8     1
18    7     44    1
19    7     45    1
20    8     9     1
21    8     46    1
22    8     47    1
23    9     10    2
24    9     11    am
25    11    12    1
26    11    48    1
27    12    33    ar
28    12    13    ar
29    13    14    ar
30    13    49    1
31    14    15    ar
32    14    50    1
33    15    16    1
34    15    32    ar
35    16    17    am
36    16    51    1
37    17    18    2
38    17    19    am
39    19    20    am
40    19    52    1
41    20    21    2
42    20    22    1
43    22    31    ar
44    22    23    ar
45    23    24    ar
46    23    53    1
47    24    25    ar
48    24    54    1
49    25    26    1
50    25    30    ar
51    26    27    1
52    26    28    1
53    26    29    1
54    27    55    1
55    27    56    1
56    27    57    1
57    28    58    1
58    28    59    1
59    28    60    1
60    29    61    1
61    29    62    1
62    29    63    1
63    30    31    ar
64    30    64    1
65    31    65    1
66    32    33    ar
67    32    66    1
68    33    67    1
@<TRIPOS>SUBSTRUCTURE
1   ZINC000043196009 1     RESIDUE    1   A     ZIN   1
