@<TRIPOS>MOLECULE
ZINC000013661447
69    73    1     0     0
SMALL
USER_CHARGES
@<TRIPOS>ATOM
1      C1     -0.9253   -4.9762   -0.4702 C.3      1 ZINC000013661447    0.0300
2      O2     -1.0833   -5.1716    0.9366 O.3      1 ZINC000013661447   -0.3200
3      C3     -0.1977   -4.5392    1.7506 C.ar     1 ZINC000013661447    0.1300
4      C4      0.7992   -3.7422    1.2069 C.ar     1 ZINC000013661447   -0.2100
5      C5      1.6979   -3.1000    2.0365 C.ar     1 ZINC000013661447   -0.0700
6      C6      1.6047   -3.2514    3.4077 C.ar     1 ZINC000013661447   -0.1200
7      C7      2.5867   -2.5500    4.3104 C.3      1 ZINC000013661447    0.0300
8      H8      2.7703   -1.5433    3.9350 H        1 ZINC000013661447    0.1000
9      C9      2.0110   -2.4696    5.7256 C.3      1 ZINC000013661447   -0.1400
10     C10     3.0783   -1.9908    6.6757 C.2      1 ZINC000013661447    0.5300
11     O11     4.1900   -1.7387    6.2616 O.2      1 ZINC000013661447   -0.5300
12     N12     2.7975   -1.8426    7.9855 N.am     1 ZINC000013661447   -0.6200
13     C13     1.4999   -2.1171    8.6200 C.3      1 ZINC000013661447    0.1000
14     C14     1.6429   -1.7812   10.1194 C.3      1 ZINC000013661447   -0.1300
15     C15     2.8448   -0.8004   10.1427 C.3      1 ZINC000013661447   -0.1300
16     C16     3.7423   -1.3847    9.0204 C.3      1 ZINC000013661447    0.1100
17     C17     3.8820   -3.3198    4.3380 C.ar     1 ZINC000013661447   -0.1400
18     C18     5.0612   -2.7049    3.9471 C.ar     1 ZINC000013661447    0.2700
19     O19     5.0418   -1.4096    3.5413 O.3      1 ZINC000013661447   -0.2900
20     C20     6.2898   -0.8331    3.1511 C.3      1 ZINC000013661447    0.0300
21     C21     6.2644   -3.4027    3.9674 C.ar     1 ZINC000013661447   -0.3200
22     C22     6.2955   -4.7214    4.3787 C.ar     1 ZINC000013661447    0.2300
23     O23     7.4689   -5.4032    4.3988 O.3      1 ZINC000013661447   -0.2900
24     C24     8.6378   -4.6954    3.9808 C.3      1 ZINC000013661447    0.0200
25     C25     5.1063   -5.3507    4.7757 C.ar     1 ZINC000013661447   -0.2200
26     C26     3.8936   -4.6403    4.7597 C.ar     1 ZINC000013661447    0.2200
27     O27     2.7502   -5.2492    5.1422 O.3      1 ZINC000013661447   -0.2600
28     C28     2.7284   -6.5299    5.5442 C.2      1 ZINC000013661447    0.5100
29     O29     1.6675   -7.0281    5.8779 O.2      1 ZINC000013661447   -0.4600
30     C30     3.8937   -7.3112    5.5903 C.2      1 ZINC000013661447   -0.2700
31     C31     5.1038   -6.7524    5.2189 C.2      1 ZINC000013661447    0.1000
32     C32     6.3533   -7.5443    5.2544 C.ar     1 ZINC000013661447   -0.0600
33     C33     7.3751   -7.2018    6.1411 C.ar     1 ZINC000013661447   -0.0600
34     C34     8.5374   -7.9444    6.1695 C.ar     1 ZINC000013661447   -0.1200
35     C35     8.6914   -9.0265    5.3210 C.ar     1 ZINC000013661447   -0.1100
36     C36     7.6824   -9.3710    4.4393 C.ar     1 ZINC000013661447   -0.1200
37     C37     6.5126   -8.6403    4.4053 C.ar     1 ZINC000013661447   -0.0900
38     C38     0.6118   -4.0447    3.9521 C.ar     1 ZINC000013661447   -0.0600
39     C39    -0.2926   -4.6848    3.1270 C.ar     1 ZINC000013661447   -0.1500
40     H40     0.0590   -5.3293   -0.7777 H        1 ZINC000013661447    0.0500
41     H41    -1.6946   -5.5349   -1.0032 H        1 ZINC000013661447    0.1000
42     H42    -1.0198   -3.9155   -0.7025 H        1 ZINC000013661447    0.0600
43     H43     0.8729   -3.6243    0.1359 H        1 ZINC000013661447    0.1300
44     H44     2.4742   -2.4795    1.6137 H        1 ZINC000013661447    0.1200
45     H45     1.1738   -1.7717    5.7381 H        1 ZINC000013661447    0.1000
46     H46     1.6660   -3.4564    6.0342 H        1 ZINC000013661447    0.1100
47     H47     0.7283   -1.4910    8.1718 H        1 ZINC000013661447    0.0700
48     H48     1.2431   -3.1694    8.4986 H        1 ZINC000013661447    0.0700
49     H49     0.7416   -1.2957   10.4935 H        1 ZINC000013661447    0.0800
50     H50     1.8664   -2.6788   10.6960 H        1 ZINC000013661447    0.0800
51     H51     2.5259    0.2142    9.9040 H        1 ZINC000013661447    0.0800
52     H52     3.3558   -0.8314   11.1051 H        1 ZINC000013661447    0.0800
53     H53     4.3302   -2.2199    9.4011 H        1 ZINC000013661447    0.0700
54     H54     4.3965   -0.6119    8.6168 H        1 ZINC000013661447    0.0800
55     H55     6.1333    0.2027    2.8500 H        1 ZINC000013661447    0.1000
56     H56     6.9838   -0.8665    3.9909 H        1 ZINC000013661447    0.0600
57     H57     6.7043   -1.3959    2.3147 H        1 ZINC000013661447    0.0600
58     H58     7.1765   -2.9125    3.6604 H        1 ZINC000013661447    0.1400
59     H59     9.5038   -5.3542    4.0449 H        1 ZINC000013661447    0.1000
60     H60     8.5111   -4.3608    2.9512 H        1 ZINC000013661447    0.0600
61     H61     8.7900   -3.8313    4.6276 H        1 ZINC000013661447    0.0600
62     H62     3.8469   -8.3392    5.9179 H        1 ZINC000013661447    0.1600
63     H63     7.2563   -6.3570    6.8033 H        1 ZINC000013661447    0.1200
64     H64     9.3289   -7.6804    6.8552 H        1 ZINC000013661447    0.1200
65     H65     9.6034   -9.6044    5.3469 H        1 ZINC000013661447    0.1200
66     H66     7.8090  -10.2163    3.7791 H        1 ZINC000013661447    0.1300
67     H67     5.7256   -8.9105    3.7169 H        1 ZINC000013661447    0.1200
68     H68     0.5408   -4.1611    5.0235 H        1 ZINC000013661447    0.1300
69     H69    -1.0680   -5.3044    3.5527 H        1 ZINC000013661447    0.1300
@<TRIPOS>BOND
1     1     2     1
2     1     40    1
3     1     41    1
4     1     42    1
5     2     3     1
6     3     39    ar
7     3     4     ar
8     4     5     ar
9     4     43    1
10    5     6     ar
11    5     44    1
12    6     7     1
13    6     38    ar
14    7     8     1
15    7     9     1
16    7     17    1
17    9     10    1
18    9     45    1
19    9     46    1
20    10    11    2
21    10    12    am
22    12    16    1
23    12    13    1
24    13    14    1
25    13    47    1
26    13    48    1
27    14    15    1
28    14    49    1
29    14    50    1
30    15    16    1
31    15    51    1
32    15    52    1
33    16    53    1
34    16    54    1
35    17    26    ar
36    17    18    ar
37    18    19    1
38    18    21    ar
39    19    20    1
40    20    55    1
41    20    56    1
42    20    57    1
43    21    22    ar
44    21    58    1
45    22    23    1
46    22    25    ar
47    23    24    1
48    24    59    1
49    24    60    1
50    24    61    1
51    25    31    1
52    25    26    ar
53    26    27    1
54    27    28    1
55    28    29    2
56    28    30    1
57    30    31    2
58    30    62    1
59    31    32    1
60    32    37    ar
61    32    33    ar
62    33    34    ar
63    33    63    1
64    34    35    ar
65    34    64    1
66    35    36    ar
67    35    65    1
68    36    37    ar
69    36    66    1
70    37    67    1
71    38    39    ar
72    38    68    1
73    39    69    1
@<TRIPOS>SUBSTRUCTURE
1   ZINC000013661447 1     RESIDUE    1   A     ZIN   1
