@<TRIPOS>MOLECULE
ZINC000098208741
60    64    1     0     0
SMALL
USER_CHARGES
@<TRIPOS>ATOM
1      C1     -1.5949    1.4587   -0.7186 C.3      1 ZINC000098208741    0.0200
2      O2     -1.0100    0.1817   -0.4552 O.3      1 ZINC000098208741   -0.3100
3      C3     -0.4125   -0.4517   -1.5008 C.ar     1 ZINC000098208741    0.1000
4      C4     -0.3861    0.1470   -2.7496 C.ar     1 ZINC000098208741   -0.1500
5      C5      0.2204   -0.4951   -3.8129 C.ar     1 ZINC000098208741   -0.1100
6      C6      0.8041   -1.7417   -3.6315 C.ar     1 ZINC000098208741    0.1500
7      N7      1.4178   -2.3905   -4.7091 N.pl3    1 ZINC000098208741   -0.6200
8      C8      2.0593   -1.6502   -5.6896 C.2      1 ZINC000098208741    0.4900
9      N9      2.1878   -0.3466   -5.5561 N.2      1 ZINC000098208741   -0.5200
10     C10     2.8068    0.3912   -6.4944 C.2      1 ZINC000098208741    0.1800
11     C11     2.9308    1.8575   -6.3050 C.ar     1 ZINC000098208741   -0.0500
12     C12     3.5652    2.6355   -7.2729 C.ar     1 ZINC000098208741   -0.0800
13     C13     3.6820    4.0011   -7.0990 C.ar     1 ZINC000098208741   -0.1200
14     C14     3.1722    4.6047   -5.9673 C.ar     1 ZINC000098208741   -0.0700
15     C15     2.5341    3.8365   -4.9907 C.ar     1 ZINC000098208741   -0.1300
16     C16     1.9878    4.4834   -3.7790 C.2      1 ZINC000098208741    0.5500
17     O17     1.4328    3.8134   -2.9301 O.2      1 ZINC000098208741   -0.5100
18     N18     2.1050    5.8160   -3.6155 N.am     1 ZINC000098208741   -0.6600
19     C19     1.6831    6.4118   -2.4298 C.ar     1 ZINC000098208741    0.1200
20     C20     1.1277    7.6881   -2.4534 C.ar     1 ZINC000098208741   -0.1600
21     C21     0.7110    8.2780   -1.2880 C.ar     1 ZINC000098208741   -0.0700
22     C22     0.8443    7.5954   -0.0738 C.ar     1 ZINC000098208741   -0.1400
23     C23     0.3978    8.2251    1.1798 C.2      1 ZINC000098208741    0.5200
24     O24    -0.0905    9.3466    1.1608 O.co2    1 ZINC000098208741   -0.6900
25     O25     0.5151    7.6268    2.2404 O.co2    1 ZINC000098208741   -0.6900
26     C26     1.4027    6.3125   -0.0543 C.ar     1 ZINC000098208741   -0.0700
27     C27     1.8126    5.7273   -1.2245 C.ar     1 ZINC000098208741   -0.1300
28     C28     2.4092    2.4592   -5.1641 C.ar     1 ZINC000098208741   -0.0200
29     C29     3.3211   -0.1839   -7.6132 C.2      1 ZINC000098208741   -0.0600
30     N30     3.2114   -1.5361   -7.7956 N.pl3    1 ZINC000098208741   -0.3200
31     C31     3.6115   -2.3850   -8.7815 C.2      1 ZINC000098208741   -0.0700
32     C32     3.2233   -3.6302   -8.4171 C.2      1 ZINC000098208741    0.0200
33     N33     2.6013   -3.5534   -7.2399 N.2      1 ZINC000098208741   -0.4600
34     C34     2.5856   -2.2942   -6.8388 C.2      1 ZINC000098208741    0.1400
35     C35     0.7793   -2.3447   -2.3806 C.ar     1 ZINC000098208741   -0.2000
36     C36     0.1771   -1.6987   -1.3142 C.ar     1 ZINC000098208741    0.1200
37     O37     0.1515   -2.2871   -0.0885 O.3      1 ZINC000098208741   -0.3000
38     C38     0.7651   -3.5724    0.0271 C.3      1 ZINC000098208741    0.0300
39     H39    -0.8259    2.1439   -1.0754 H        1 ZINC000098208741    0.0700
40     H40    -2.3691    1.3539   -1.4787 H        1 ZINC000098208741    0.0500
41     H41    -2.0357    1.8523    0.1972 H        1 ZINC000098208741    0.1000
42     H42    -0.8402    1.1164   -2.8928 H        1 ZINC000098208741    0.1400
43     H43     0.2400   -0.0267   -4.7858 H        1 ZINC000098208741    0.1400
44     H44     1.3942   -3.3584   -4.7697 H        1 ZINC000098208741    0.4300
45     H45     3.9666    2.1693   -8.1605 H        1 ZINC000098208741    0.1300
46     H46     4.1746    4.5988   -7.8517 H        1 ZINC000098208741    0.1400
47     H47     3.2671    5.6725   -5.8366 H        1 ZINC000098208741    0.1300
48     H48     2.4833    6.3602   -4.3238 H        1 ZINC000098208741    0.4000
49     H49     1.0251    8.2143   -3.3909 H        1 ZINC000098208741    0.1200
50     H50     0.2809    9.2685   -1.3070 H        1 ZINC000098208741    0.1300
51     H51     1.5076    5.7826    0.8810 H        1 ZINC000098208741    0.1300
52     H52     2.2433    4.7370   -1.2103 H        1 ZINC000098208741    0.1300
53     H53     1.9164    1.8605   -4.4123 H        1 ZINC000098208741    0.1500
54     H54     3.8147    0.4244   -8.3566 H        1 ZINC000098208741    0.1700
55     H55     4.1392   -2.1161   -9.6846 H        1 ZINC000098208741    0.1900
56     H56     3.3896   -4.5339   -8.9846 H        1 ZINC000098208741    0.1900
57     H57     1.2331   -3.3144   -2.2388 H        1 ZINC000098208741    0.1400
58     H58     0.2695   -4.2734   -0.6446 H        1 ZINC000098208741    0.0500
59     H59     1.8193   -3.4971   -0.2397 H        1 ZINC000098208741    0.0500
60     H60     0.6746   -3.9273    1.0537 H        1 ZINC000098208741    0.1000
@<TRIPOS>BOND
1     1     2     1
2     1     39    1
3     1     40    1
4     1     41    1
5     2     3     1
6     3     36    ar
7     3     4     ar
8     4     5     ar
9     4     42    1
10    5     6     ar
11    5     43    1
12    6     7     1
13    6     35    ar
14    7     8     1
15    7     44    1
16    8     34    1
17    8     9     2
18    9     10    1
19    10    11    1
20    10    29    2
21    11    28    ar
22    11    12    ar
23    12    13    ar
24    12    45    1
25    13    14    ar
26    13    46    1
27    14    15    ar
28    14    47    1
29    15    16    1
30    15    28    ar
31    16    17    2
32    16    18    am
33    18    19    1
34    18    48    1
35    19    27    ar
36    19    20    ar
37    20    21    ar
38    20    49    1
39    21    22    ar
40    21    50    1
41    22    23    1
42    22    26    ar
43    23    24    ar
44    23    25    ar
45    26    27    ar
46    26    51    1
47    27    52    1
48    28    53    1
49    29    30    1
50    29    54    1
51    30    34    1
52    30    31    1
53    31    32    2
54    31    55    1
55    32    33    1
56    32    56    1
57    33    34    2
58    35    36    ar
59    35    57    1
60    36    37    1
61    37    38    1
62    38    58    1
63    38    59    1
64    38    60    1
@<TRIPOS>SUBSTRUCTURE
1   ZINC000098208741 1     RESIDUE    1   A     ZIN   1
