@<TRIPOS>MOLECULE
ZINC000040893639
  35   37    0    0    0
SMALL
USER_CHARGES
NO_NAME
@<TRIPOS>ATOM
    1 C1        0.0670     1.0066     0.2501 C.3    1 <0>       0.0200
    2 O2       -0.0469    -0.4077     0.4196 O.3    1 <0>      -0.3100
    3 C3       -1.3008    -0.9316     0.4067 C.ar   1 <0>       0.1500
    4 C4       -2.3968    -0.1024     0.2290 C.ar   1 <0>      -0.2100
    5 C5       -3.6763    -0.6408     0.2164 C.ar   1 <0>       0.2100
    6 N6       -4.7846     0.1924     0.0369 N.pl3  1 <0>      -0.6400
    7 C7       -5.8980    -0.2729    -0.6437 C.ar   1 <0>       0.5700
    8 N8       -5.8549    -1.4708    -1.2090 N.ar   1 <0>      -0.5500
    9 C9       -6.8974    -1.9522    -1.8679 C.ar   1 <0>       0.2000
   10 C10      -8.0473    -1.1899    -1.9656 C.ar   1 <0>      -0.2200
   11 C11      -8.0642     0.0711    -1.3589 C.ar   1 <0>       0.2800
   12 C12      -9.2685     0.9245    -1.4343 C.2    1 <0>       0.0800
   13 N13     -10.3812     0.6101    -2.0339 N.2    1 <0>      -0.4400
   14 C14     -11.3488     1.4932    -1.9988 C.2    1 <0>       0.0400
   15 C15     -11.0783     2.6297    -1.3429 C.2    1 <0>      -0.2400
   16 S16      -9.4321     2.5272    -0.7212 S.3    1 <0>       0.1700
   17 N17      -6.9788     0.4882    -0.7078 N.ar   1 <0>      -0.5500
   18 C18      -3.8540    -2.0086     0.3819 C.ar   1 <0>      -0.1100
   19 C19      -2.7587    -2.8318     0.5593 C.ar   1 <0>      -0.1200
   20 C20      -2.9541    -4.3152     0.7392 C.3    1 <0>       0.5100
   21 F21      -2.9304    -4.9436    -0.5106 F      1 <0>      -0.1700
   22 F22      -1.9263    -4.8274     1.5382 F      1 <0>      -0.1700
   23 F23      -4.1869    -4.5517     1.3568 F      1 <0>      -0.1700
   24 C24      -1.4841    -2.2983     0.5659 C.ar   1 <0>      -0.1200
   25 H25       1.1184     1.2926     0.2801 H      1 <0>       0.1100
   26 H26      -0.3602     1.2930    -0.7109 H      1 <0>       0.0600
   27 H27      -0.4703     1.5131     1.0520 H      1 <0>       0.0600
   28 H28      -2.2558     0.9607     0.1009 H      1 <0>       0.1400
   29 H29      -4.7739     1.0962     0.3889 H      1 <0>       0.4300
   30 H30      -6.8503    -2.9297    -2.3248 H      1 <0>       0.1800
   31 H31      -8.9116    -1.5590    -2.4977 H      1 <0>       0.1600
   32 H32     -12.3046     1.3161    -2.4695 H      1 <0>       0.1800
   33 H33     -11.7533     3.4629    -1.2143 H      1 <0>       0.1900
   34 H34      -4.8489    -2.4287     0.3723 H      1 <0>       0.1500
   35 H35      -0.6298    -2.9444     0.7048 H      1 <0>       0.1500
@<TRIPOS>BOND
   1    1    2 1
   2    1   25 1
   3    1   26 1
   4    1   27 1
   5    2    3 1
   6    3   24 ar
   7    3    4 ar
   8    4    5 ar
   9    4   28 1
  10    5    6 1
  11    5   18 ar
  12    6    7 1
  13    6   29 1
  14    7   17 ar
  15    7    8 ar
  16    8    9 ar
  17    9   10 ar
  18    9   30 1
  19   10   11 ar
  20   10   31 1
  21   11   12 1
  22   11   17 ar
  23   12   16 1
  24   12   13 2
  25   13   14 1
  26   14   15 2
  27   14   32 1
  28   15   16 1
  29   15   33 1
  30   18   19 ar
  31   18   34 1
  32   19   20 1
  33   19   24 ar
  34   20   21 1
  35   20   22 1
  36   20   23 1
  37   24   35 1
