@<TRIPOS>MOLECULE
ZINC000013986658
49    53    1     0     0
SMALL
USER_CHARGES
@<TRIPOS>ATOM
1      C1      0.3042    0.3193    2.3445 C.3      1 ZINC000013986658   -0.1400
2      C2      0.4079   -1.0392    1.6484 C.3      1 ZINC000013986658   -0.1300
3      C3      0.5351   -0.8301    0.1381 C.3      1 ZINC000013986658    0.2100
4      H4      1.3784   -0.1708   -0.0676 H        1 ZINC000013986658    0.1300
5      N5     -0.6955   -0.2240   -0.3763 N.pl3    1 ZINC000013986658   -0.7000
6      C6     -0.8608    1.1510   -0.3338 C.ar     1 ZINC000013986658    0.4800
7      C7     -2.0294    1.7444   -0.8143 C.ar     1 ZINC000013986658   -0.1200
8      N8     -3.1977    1.2858   -1.3855 N.pl3    1 ZINC000013986658   -0.5700
9      C9     -3.9674    2.3673   -1.6429 C.2      1 ZINC000013986658    0.3000
10     N10    -3.3521    3.4546   -1.2694 N.2      1 ZINC000013986658   -0.4900
11     C11    -2.1502    3.1424   -0.7492 C.ar     1 ZINC000013986658    0.3200
12     N12    -1.1419    3.8495   -0.2294 N.ar     1 ZINC000013986658   -0.5200
13     C13    -0.0599    3.2465    0.2112 C.ar     1 ZINC000013986658    0.3400
14     N14     0.0885    1.9349    0.1709 N.ar     1 ZINC000013986658   -0.5700
15     C15     0.7603   -2.1591   -0.5358 C.2      1 ZINC000013986658    0.4100
16     N16    -0.2750   -2.8886   -0.8212 N.2      1 ZINC000013986658   -0.5200
17     C17    -0.1488   -4.0957   -1.4277 C.ar     1 ZINC000013986658    0.1800
18     C18    -1.2611   -4.8801   -1.7351 C.ar     1 ZINC000013986658   -0.1200
19     C19    -1.0882   -6.1000   -2.3518 C.ar     1 ZINC000013986658   -0.0400
20     C20     0.1798   -6.5620   -2.6728 C.ar     1 ZINC000013986658   -0.1700
21     C21     1.2975   -5.8054   -2.3790 C.ar     1 ZINC000013986658    0.1800
22     F22     2.5300   -6.2603   -2.6940 F        1 ZINC000013986658   -0.1100
23     C23     1.1430   -4.5667   -1.7549 C.ar     1 ZINC000013986658   -0.2400
24     C24     2.2931   -3.7177   -1.4183 C.2      1 ZINC000013986658    0.5500
25     O25     3.4317   -4.0654   -1.6730 O.2      1 ZINC000013986658   -0.4700
26     N26     2.0381   -2.5311   -0.8193 N.am     1 ZINC000013986658   -0.4900
27     C27     3.0997   -1.6837   -0.4779 C.ar     1 ZINC000013986658    0.0900
28     C28     3.5371   -0.7197   -1.3766 C.ar     1 ZINC000013986658   -0.1000
29     C29     4.5838    0.1148   -1.0367 C.ar     1 ZINC000013986658   -0.1000
30     C30     5.1961   -0.0089    0.1970 C.ar     1 ZINC000013986658   -0.0900
31     C31     4.7631   -0.9682    1.0939 C.ar     1 ZINC000013986658   -0.1000
32     C32     3.7131   -1.8019    0.7623 C.ar     1 ZINC000013986658   -0.1000
33     H33     1.1986    0.9052    2.1328 H        1 ZINC000013986658    0.0700
34     H34    -0.5736    0.8503    1.9760 H        1 ZINC000013986658    0.0500
35     H35     0.2136    0.1703    3.4204 H        1 ZINC000013986658    0.0500
36     H36     1.2857   -1.5702    2.0169 H        1 ZINC000013986658    0.0700
37     H37    -0.4865   -1.6251    1.8600 H        1 ZINC000013986658    0.0700
38     H38    -1.3945   -0.7854   -0.7466 H        1 ZINC000013986658    0.4200
39     H39    -3.4247    0.3607   -1.5686 H        1 ZINC000013986658    0.4300
40     H40    -4.9488    2.3352   -2.0924 H        1 ZINC000013986658    0.2300
41     H41     0.7367    3.8467    0.6254 H        1 ZINC000013986658    0.2000
42     H42    -2.2539   -4.5324   -1.4903 H        1 ZINC000013986658    0.1500
43     H43    -1.9513   -6.7048   -2.5880 H        1 ZINC000013986658    0.1500
44     H44     0.2940   -7.5211   -3.1560 H        1 ZINC000013986658    0.1500
45     H45     3.0595   -0.6228   -2.3404 H        1 ZINC000013986658    0.1300
46     H46     4.9247    0.8645   -1.7354 H        1 ZINC000013986658    0.1400
47     H47     6.0144    0.6448    0.4604 H        1 ZINC000013986658    0.1300
48     H48     5.2438   -1.0628    2.0564 H        1 ZINC000013986658    0.1400
49     H49     3.3751   -2.5506    1.4634 H        1 ZINC000013986658    0.1300
@<TRIPOS>BOND
1     1     2     1
2     1     33    1
3     1     34    1
4     1     35    1
5     2     3     1
6     2     36    1
7     2     37    1
8     3     4     1
9     3     5     1
10    3     15    1
11    5     6     1
12    5     38    1
13    6     14    ar
14    6     7     ar
15    7     11    ar
16    7     8     1
17    8     9     1
18    8     39    1
19    9     10    2
20    9     40    1
21    10    11    1
22    11    12    ar
23    12    13    ar
24    13    14    ar
25    13    41    1
26    15    26    1
27    15    16    2
28    16    17    1
29    17    23    ar
30    17    18    ar
31    18    19    ar
32    18    42    1
33    19    20    ar
34    19    43    1
35    20    21    ar
36    20    44    1
37    21    22    1
38    21    23    ar
39    23    24    1
40    24    25    2
41    24    26    am
42    26    27    1
43    27    32    ar
44    27    28    ar
45    28    29    ar
46    28    45    1
47    29    30    ar
48    29    46    1
49    30    31    ar
50    30    47    1
51    31    32    ar
52    31    48    1
53    32    49    1
@<TRIPOS>SUBSTRUCTURE
1   ZINC000013986658 1     RESIDUE    1   A     ZIN   1
