@<TRIPOS>MOLECULE
ZINC000000601259
56    58    1     0     0
SMALL
USER_CHARGES
@<TRIPOS>ATOM
1      C1     -0.3525    1.3716   -0.1512 C.3      1 ZINC000000601259    0.0200
2      O2      0.0021   -0.0042    0.0021 O.3      1 ZINC000000601259   -0.3200
3      C3      0.6058   -0.6072   -1.0556 C.ar     1 ZINC000000601259    0.1500
4      C4      0.8570    0.1120   -2.2151 C.ar     1 ZINC000000601259   -0.2100
5      C5      1.4712   -0.5032   -3.2887 C.ar     1 ZINC000000601259   -0.0400
6      C6      1.8352   -1.8346   -3.2086 C.ar     1 ZINC000000601259   -0.1200
7      C7      2.5046   -2.5033   -4.3815 C.3      1 ZINC000000601259   -0.0100
8      H8      2.8113   -1.7527   -5.1099 H        1 ZINC000000601259    0.1300
9      S9      3.9595   -3.4436   -3.8110 S.3      1 ZINC000000601259   -0.1000
10     C10     4.2371   -4.5606   -5.1468 C.ar     1 ZINC000000601259   -0.1500
11     C11     5.3104   -4.3798   -6.0041 C.ar     1 ZINC000000601259   -0.0400
12     C12     5.5138   -5.2699   -7.0439 C.ar     1 ZINC000000601259   -0.1200
13     C13     4.6521   -6.3354   -7.2273 C.ar     1 ZINC000000601259   -0.0700
14     C14     3.5774   -6.5199   -6.3751 C.ar     1 ZINC000000601259   -0.1300
15     C15     3.3662   -5.6317   -5.3339 C.ar     1 ZINC000000601259    0.1500
16     N16     2.2728   -5.7934   -4.4683 N.am     1 ZINC000000601259   -0.5500
17     C17     2.0276   -7.0895   -3.8309 C.3      1 ZINC000000601259    0.0900
18     C18     2.7675   -7.1481   -2.4931 C.3      1 ZINC000000601259   -0.0300
19     N19     2.5216   -8.4477   -1.8539 N.4      1 ZINC000000601259   -0.3800
20     H20     1.5274   -8.5988   -1.7708 H        1 ZINC000000601259    0.4300
21     C21     3.1124   -9.5153   -2.6719 C.3      1 ZINC000000601259   -0.0500
22     C22     3.1321   -8.4597   -0.5179 C.3      1 ZINC000000601259   -0.0500
23     C23     1.4548   -4.7619   -4.2257 C.2      1 ZINC000000601259    0.5200
24     O24     0.6340   -4.8474   -3.3368 O.2      1 ZINC000000601259   -0.4800
25     C25     1.5358   -3.5016   -5.0364 C.3      1 ZINC000000601259    0.0800
26     H26     1.8883   -3.7413   -6.0396 H        1 ZINC000000601259    0.1100
27     O27     0.2163   -2.9020   -5.1229 O.3      1 ZINC000000601259   -0.3100
28     C28    -0.5568   -3.2764   -6.1544 C.2      1 ZINC000000601259    0.4600
29     C29    -1.9389   -2.6962   -6.3097 C.3      1 ZINC000000601259   -0.1500
30     O30    -0.1445   -4.0785   -6.9584 O.2      1 ZINC000000601259   -0.5100
31     C31     1.5863   -2.5535   -2.0540 C.ar     1 ZINC000000601259   -0.0400
32     C32     0.9771   -1.9415   -0.9757 C.ar     1 ZINC000000601259   -0.1500
33     H33     0.5445    1.9581   -0.3498 H        1 ZINC000000601259    0.0600
34     H34    -1.0475    1.4771   -0.9843 H        1 ZINC000000601259    0.0600
35     H35    -0.8251    1.7291    0.7637 H        1 ZINC000000601259    0.1000
36     H36     0.5723    1.1519   -2.2784 H        1 ZINC000000601259    0.1300
37     H37     1.6670    0.0563   -4.1915 H        1 ZINC000000601259    0.1300
38     H38     5.9847   -3.5482   -5.8618 H        1 ZINC000000601259    0.1500
39     H39     6.3486   -5.1315   -7.7149 H        1 ZINC000000601259    0.1400
40     H40     4.8183   -7.0270   -8.0400 H        1 ZINC000000601259    0.1400
41     H41     2.9066   -7.3536   -6.5210 H        1 ZINC000000601259    0.1400
42     H42     0.9582   -7.2140   -3.6604 H        1 ZINC000000601259    0.1100
43     H43     2.3873   -7.8876   -4.4803 H        1 ZINC000000601259    0.1100
44     H44     3.8369   -7.0236   -2.6636 H        1 ZINC000000601259    0.1400
45     H45     2.4078   -6.3500   -1.8437 H        1 ZINC000000601259    0.1400
46     H46     2.9299  -10.4796   -2.1977 H        1 ZINC000000601259    0.1300
47     H47     2.6594   -9.5064   -3.6633 H        1 ZINC000000601259    0.1200
48     H48     4.1864   -9.3520   -2.7617 H        1 ZINC000000601259    0.1200
49     H49     2.6937   -7.6675    0.0891 H        1 ZINC000000601259    0.1300
50     H50     2.9496   -9.4240   -0.0436 H        1 ZINC000000601259    0.1300
51     H51     4.2061   -8.2964   -0.6077 H        1 ZINC000000601259    0.1200
52     H52    -1.8870   -1.7904   -6.9138 H        1 ZINC000000601259    0.1100
53     H53    -2.5853   -3.4237   -6.8006 H        1 ZINC000000601259    0.1100
54     H54    -2.3442   -2.4548   -5.3270 H        1 ZINC000000601259    0.1000
55     H55     1.8718   -3.5934   -1.9938 H        1 ZINC000000601259    0.1300
56     H56     0.7829   -2.5035   -0.0741 H        1 ZINC000000601259    0.1300
@<TRIPOS>BOND
1     1     2     1
2     1     33    1
3     1     34    1
4     1     35    1
5     2     3     1
6     3     32    ar
7     3     4     ar
8     4     5     ar
9     4     36    1
10    5     6     ar
11    5     37    1
12    6     7     1
13    6     31    ar
14    7     8     1
15    7     25    1
16    7     9     1
17    9     10    1
18    10    15    ar
19    10    11    ar
20    11    12    ar
21    11    38    1
22    12    13    ar
23    12    39    1
24    13    14    ar
25    13    40    1
26    14    15    ar
27    14    41    1
28    15    16    1
29    16    17    1
30    16    23    am
31    17    18    1
32    17    42    1
33    17    43    1
34    18    19    1
35    18    44    1
36    18    45    1
37    19    20    1
38    19    21    1
39    19    22    1
40    21    46    1
41    21    47    1
42    21    48    1
43    22    49    1
44    22    50    1
45    22    51    1
46    23    24    2
47    23    25    1
48    25    26    1
49    25    27    1
50    27    28    1
51    28    29    1
52    28    30    2
53    29    52    1
54    29    53    1
55    29    54    1
56    31    32    ar
57    31    55    1
58    32    56    1
@<TRIPOS>SUBSTRUCTURE
1   ZINC000000601259 1     RESIDUE    1   A     ZIN   1
