@<TRIPOS>MOLECULE
ZINC000103300707
69    73    1     0     0
SMALL
USER_CHARGES
@<TRIPOS>ATOM
1      O1     -4.5152    1.6901   -4.5540 O.co2    1 ZINC000103300707   -0.6900
2      C2     -3.8535    2.6147   -4.1023 C.2      1 ZINC000103300707    0.5200
3      O3     -3.1642    3.2957   -4.8491 O.co2    1 ZINC000103300707   -0.6700
4      C4     -3.8915    2.9115   -2.6613 C.ar     1 ZINC000103300707   -0.1500
5      C5     -4.7967    2.2448   -1.8300 C.ar     1 ZINC000103300707   -0.0400
6      C6     -4.8257    2.5293   -0.4762 C.ar     1 ZINC000103300707    0.1100
7      N7     -5.7314    1.8622    0.3585 N.am     1 ZINC000103300707   -0.5500
8      C8     -6.7195    2.6250    1.1253 C.3      1 ZINC000103300707    0.1100
9      C9     -7.6455    3.3429    0.1776 C.ar     1 ZINC000103300707   -0.1100
10     C10    -7.4164    4.6682   -0.1415 C.ar     1 ZINC000103300707   -0.0900
11     C11    -8.2658    5.3267   -1.0108 C.ar     1 ZINC000103300707   -0.1100
12     C12    -9.3442    4.6597   -1.5613 C.ar     1 ZINC000103300707   -0.0700
13     C13   -10.2706    5.3777   -2.5086 C.3      1 ZINC000103300707   -0.0500
14     C14   -10.2666    4.6662   -3.8631 C.3      1 ZINC000103300707   -0.1100
15     C15   -11.2071    5.3952   -4.8249 C.3      1 ZINC000103300707   -0.1200
16     C16   -12.6255    5.3922   -4.2514 C.3      1 ZINC000103300707   -0.1200
17     C17   -12.6295    6.1037   -2.8969 C.3      1 ZINC000103300707   -0.1200
18     C18   -11.6890    5.3747   -1.9351 C.3      1 ZINC000103300707   -0.1100
19     C19    -9.5726    3.3340   -1.2433 C.ar     1 ZINC000103300707   -0.1100
20     C20    -8.7210    2.6744   -0.3769 C.ar     1 ZINC000103300707   -0.1100
21     C21    -5.6939    0.5185    0.4561 C.2      1 ZINC000103300707    0.5500
22     O22    -4.9472   -0.1224   -0.2583 O.2      1 ZINC000103300707   -0.5000
23     C23    -6.5589   -0.1750    1.4301 C.ar     1 ZINC000103300707   -0.1100
24     C24    -7.8438    0.3071    1.6937 C.ar     1 ZINC000103300707   -0.1100
25     C25    -8.6479   -0.3427    2.6032 C.ar     1 ZINC000103300707   -0.1200
26     C26    -8.1828   -1.4768    3.2592 C.ar     1 ZINC000103300707    0.1000
27     O27    -8.9780   -2.1142    4.1552 O.3      1 ZINC000103300707   -0.2600
28     C28    -8.7759   -1.8676    5.4761 C.ar     1 ZINC000103300707    0.1200
29     C29    -9.6463   -2.3905    6.4218 C.ar     1 ZINC000103300707   -0.1500
30     C30    -9.4384   -2.1388    7.7640 C.ar     1 ZINC000103300707   -0.0800
31     C31    -8.3640   -1.3665    8.1655 C.ar     1 ZINC000103300707   -0.1500
32     C32    -7.4952   -0.8442    7.2252 C.ar     1 ZINC000103300707   -0.0800
33     C33    -7.6956   -1.0973    5.8820 C.ar     1 ZINC000103300707   -0.1900
34     C34    -6.9053   -1.9598    2.9994 C.ar     1 ZINC000103300707   -0.1300
35     C35    -6.0973   -1.3189    2.0871 C.ar     1 ZINC000103300707   -0.0500
36     C36    -3.9574    3.4759    0.0583 C.ar     1 ZINC000103300707   -0.1200
37     C37    -3.0610    4.1383   -0.7555 C.ar     1 ZINC000103300707   -0.1600
38     C38    -3.0156    3.8609   -2.1134 C.ar     1 ZINC000103300707    0.1400
39     O39    -2.1337    4.5132   -2.9118 O.3      1 ZINC000103300707   -0.4700
40     H40    -5.4716    1.5100   -2.2435 H        1 ZINC000103300707    0.1300
41     H41    -7.2966    1.9452    1.7521 H        1 ZINC000103300707    0.1300
42     H42    -6.2077    3.3532    1.7545 H        1 ZINC000103300707    0.0800
43     H43    -6.5738    5.1893    0.2886 H        1 ZINC000103300707    0.1200
44     H44    -8.0872    6.3623   -1.2596 H        1 ZINC000103300707    0.1200
45     H45    -9.9329    6.4060   -2.6374 H        1 ZINC000103300707    0.0800
46     H46    -9.2561    4.6683   -4.2717 H        1 ZINC000103300707    0.0700
47     H47   -10.6043    3.6379   -3.7344 H        1 ZINC000103300707    0.0600
48     H48   -10.8694    6.4235   -4.9537 H        1 ZINC000103300707    0.0600
49     H49   -11.2043    4.8883   -5.7899 H        1 ZINC000103300707    0.0600
50     H50   -13.2956    5.9115   -4.9366 H        1 ZINC000103300707    0.0600
51     H51   -12.9632    4.3638   -4.1226 H        1 ZINC000103300707    0.0600
52     H52   -12.2919    7.1320   -3.0257 H        1 ZINC000103300707    0.0600
53     H53   -13.6401    6.1015   -2.4883 H        1 ZINC000103300707    0.0600
54     H54   -12.0267    4.3464   -1.8064 H        1 ZINC000103300707    0.0600
55     H55   -11.6919    5.8816   -0.9702 H        1 ZINC000103300707    0.0600
56     H56   -10.4150    2.8128   -1.6737 H        1 ZINC000103300707    0.1200
57     H57    -8.8994    1.6386   -0.1284 H        1 ZINC000103300707    0.1200
58     H58    -8.2056    1.1884    1.1850 H        1 ZINC000103300707    0.1700
59     H59    -9.6410    0.0292    2.8075 H        1 ZINC000103300707    0.1400
60     H60   -10.4858   -2.9936    6.1087 H        1 ZINC000103300707    0.1300
61     H61   -10.1157   -2.5453    8.5005 H        1 ZINC000103300707    0.1300
62     H62    -8.2034   -1.1706    9.2154 H        1 ZINC000103300707    0.1200
63     H63    -6.6568   -0.2413    7.5413 H        1 ZINC000103300707    0.1300
64     H64    -7.0164   -0.6894    5.1480 H        1 ZINC000103300707    0.1300
65     H65    -6.5476   -2.8411    3.5111 H        1 ZINC000103300707    0.1400
66     H66    -5.1052   -1.6950    1.8855 H        1 ZINC000103300707    0.1400
67     H67    -3.9852    3.6937    1.1158 H        1 ZINC000103300707    0.1200
68     H68    -2.3905    4.8720   -0.3330 H        1 ZINC000103300707    0.1200
69     H69    -1.2772    4.0721   -2.9944 H        1 ZINC000103300707    0.3800
@<TRIPOS>BOND
1     1     2     ar
2     2     3     ar
3     2     4     1
4     4     38    ar
5     4     5     ar
6     5     6     ar
7     5     40    1
8     6     7     1
9     6     36    ar
10    7     8     1
11    7     21    am
12    8     9     1
13    8     41    1
14    8     42    1
15    9     20    ar
16    9     10    ar
17    10    11    ar
18    10    43    1
19    11    12    ar
20    11    44    1
21    12    13    1
22    12    19    ar
23    13    18    1
24    13    14    1
25    13    45    1
26    14    15    1
27    14    46    1
28    14    47    1
29    15    16    1
30    15    48    1
31    15    49    1
32    16    17    1
33    16    50    1
34    16    51    1
35    17    18    1
36    17    52    1
37    17    53    1
38    18    54    1
39    18    55    1
40    19    20    ar
41    19    56    1
42    20    57    1
43    21    22    2
44    21    23    1
45    23    35    ar
46    23    24    ar
47    24    25    ar
48    24    58    1
49    25    26    ar
50    25    59    1
51    26    27    1
52    26    34    ar
53    27    28    1
54    28    33    ar
55    28    29    ar
56    29    30    ar
57    29    60    1
58    30    31    ar
59    30    61    1
60    31    32    ar
61    31    62    1
62    32    33    ar
63    32    63    1
64    33    64    1
65    34    35    ar
66    34    65    1
67    35    66    1
68    36    37    ar
69    36    67    1
70    37    38    ar
71    37    68    1
72    38    39    1
73    39    69    1
@<TRIPOS>SUBSTRUCTURE
1   ZINC000103300707 1     RESIDUE    1   A     ZIN   1
