@<TRIPOS>MOLECULE
ZINC000068244543
42    44    1     0     0
SMALL
USER_CHARGES
@<TRIPOS>ATOM
1      C1      1.2922    2.4521    0.0951 C.3      1 ZINC000068244543   -0.6500
2      S2      0.7419    0.7240    0.0564 S.o2     1 ZINC000068244543    2.5000
3      O3      1.4011   -0.0319    1.0630 O.2      1 ZINC000068244543   -0.9400
4      O4     -0.6677    0.6531   -0.1079 O.2      1 ZINC000068244543   -0.9400
5      C5      1.3880    0.0907   -1.4556 C.ar     1 ZINC000068244543   -0.6600
6      C6      0.6399    0.1803   -2.6157 C.ar     1 ZINC000068244543   -0.0200
7      C7      1.1409   -0.3141   -3.8029 C.ar     1 ZINC000068244543   -0.1300
8      C8      2.4032   -0.9041   -3.8315 C.ar     1 ZINC000068244543    0.0300
9      C9      2.9472   -1.4368   -5.1045 C.ar     1 ZINC000068244543    0.0400
10     C10     2.2422   -1.2492   -6.2974 C.ar     1 ZINC000068244543    0.1600
11     N11     2.7210   -1.7206   -7.4324 N.ar     1 ZINC000068244543   -0.4900
12     C12     3.8764   -2.3763   -7.4465 C.ar     1 ZINC000068244543    0.4200
13     N13     4.3780   -2.8698   -8.6363 N.pl3    1 ZINC000068244543   -0.8100
14     C14     4.5878   -2.5668   -6.2498 C.ar     1 ZINC000068244543   -0.0400
15     C15     5.8731   -3.2947   -6.2598 C.2      1 ZINC000068244543    0.5900
16     O16     6.3639   -3.6472   -7.3148 O.2      1 ZINC000068244543   -0.5200
17     N17     6.5019   -3.5679   -5.0994 N.am     1 ZINC000068244543   -0.6500
18     C18     7.7695   -4.1582   -5.1132 C.ar     1 ZINC000068244543    0.1400
19     C19     8.1380   -5.0391   -4.1046 C.ar     1 ZINC000068244543   -0.1400
20     C20     9.3907   -5.6203   -4.1211 C.ar     1 ZINC000068244543   -0.1000
21     C21    10.2779   -5.3256   -5.1401 C.ar     1 ZINC000068244543   -0.1300
22     C22     9.9143   -4.4486   -6.1455 C.ar     1 ZINC000068244543   -0.1000
23     C23     8.6607   -3.8691   -6.1385 C.ar     1 ZINC000068244543   -0.1200
24     N24     4.1035   -2.0850   -5.1099 N.ar     1 ZINC000068244543   -0.3600
25     C25     3.1527   -0.9912   -2.6597 C.ar     1 ZINC000068244543   -0.1100
26     C26     2.6437   -0.4891   -1.4792 C.ar     1 ZINC000068244543   -0.0200
27     H27     2.3814    2.4872    0.0716 H        1 ZINC000068244543    0.1300
28     H28     0.8929    2.9801   -0.7709 H        1 ZINC000068244543    0.1300
29     H29     0.9330    2.9274    1.0079 H        1 ZINC000068244543    0.1300
30     H30    -0.3382    0.6376   -2.5924 H        1 ZINC000068244543    0.1500
31     H31     0.5557   -0.2443   -4.7079 H        1 ZINC000068244543    0.1400
32     H32     1.3025   -0.7170   -6.2894 H        1 ZINC000068244543    0.1800
33     H33     3.7758   -3.0749   -9.3686 H        1 ZINC000068244543    0.4100
34     H34     5.3322   -3.0110   -8.7390 H        1 ZINC000068244543    0.4300
35     H35     6.0751   -3.3552   -4.2548 H        1 ZINC000068244543    0.4200
36     H36     7.4458   -5.2692   -3.3081 H        1 ZINC000068244543    0.1300
37     H37     9.6779   -6.3054   -3.3372 H        1 ZINC000068244543    0.1300
38     H38    11.2571   -5.7812   -5.1505 H        1 ZINC000068244543    0.1300
39     H39    10.6097   -4.2202   -6.9397 H        1 ZINC000068244543    0.1300
40     H40     8.3774   -3.1842   -6.9240 H        1 ZINC000068244543    0.1300
41     H41     4.1313   -1.4476   -2.6761 H        1 ZINC000068244543    0.1400
42     H42     3.2237   -0.5558   -0.5706 H        1 ZINC000068244543    0.1500
@<TRIPOS>BOND
1     1     2     1
2     1     27    1
3     1     28    1
4     1     29    1
5     2     3     2
6     2     4     2
7     2     5     1
8     5     26    ar
9     5     6     ar
10    6     7     ar
11    6     30    1
12    7     8     ar
13    7     31    1
14    8     9     1
15    8     25    ar
16    9     24    ar
17    9     10    ar
18    10    11    ar
19    10    32    1
20    11    12    ar
21    12    13    1
22    12    14    ar
23    13    33    1
24    13    34    1
25    14    15    1
26    14    24    ar
27    15    16    2
28    15    17    am
29    17    18    1
30    17    35    1
31    18    23    ar
32    18    19    ar
33    19    20    ar
34    19    36    1
35    20    21    ar
36    20    37    1
37    21    22    ar
38    21    38    1
39    22    23    ar
40    22    39    1
41    23    40    1
42    25    26    ar
43    25    41    1
44    26    42    1
@<TRIPOS>SUBSTRUCTURE
1   ZINC000068244543 1     RESIDUE    1   A     ZIN   1
