@<TRIPOS>MOLECULE
ZINC000000006014
40    43    1     0     0
SMALL
USER_CHARGES
@<TRIPOS>ATOM
1      O1      0.0062    0.0118   -0.2718 O.2      1 ZINC000000006014   -0.4900
2      C2     -0.0122    1.2249   -0.1380 C.2      1 ZINC000000006014    0.4300
3      C3     -1.2251    1.9400   -0.1142 C.2      1 ZINC000000006014   -0.4000
4      C4     -1.2042    3.2940    0.0375 C.2      1 ZINC000000006014    0.4300
5      N5     -2.3949    3.9735    0.0588 N.pl3    1 ZINC000000006014   -0.6100
6      C6     -3.6101    3.3551    0.6120 C.3      1 ZINC000000006014    0.0900
7      C7     -4.2346    4.3303    1.6164 C.3      1 ZINC000000006014    0.0400
8      O8     -4.3988    5.6065    0.9936 O.3      1 ZINC000000006014   -0.3800
9      C9     -3.1739    6.2213    0.5868 C.3      1 ZINC000000006014    0.0500
10     C10    -2.4938    5.3450   -0.4652 C.3      1 ZINC000000006014    0.0800
11     O11    -0.0646    3.9867    0.1670 O.3      1 ZINC000000006014   -0.2400
12     C12     1.1457    3.3910    0.1564 C.ar     1 ZINC000000006014    0.1600
13     C13     2.3178    4.1433    0.2945 C.ar     1 ZINC000000006014   -0.0700
14     C14     2.2436    5.6158    0.4556 C.ar     1 ZINC000000006014   -0.0500
15     C15     1.4733    6.3775   -0.4213 C.ar     1 ZINC000000006014   -0.1000
16     C16     1.4075    7.7473   -0.2664 C.ar     1 ZINC000000006014   -0.1200
17     C17     2.1044    8.3644    0.7568 C.ar     1 ZINC000000006014   -0.1100
18     C18     2.8706    7.6135    1.6301 C.ar     1 ZINC000000006014   -0.1200
19     C19     2.9394    6.2425    1.4879 C.ar     1 ZINC000000006014   -0.1000
20     C20     3.5524    3.5031    0.2805 C.ar     1 ZINC000000006014   -0.0500
21     C21     3.6301    2.1295    0.1311 C.ar     1 ZINC000000006014   -0.1400
22     C22     2.4829    1.3758   -0.0065 C.ar     1 ZINC000000006014   -0.0300
23     C23     1.2370    2.0001    0.0115 C.ar     1 ZINC000000006014   -0.2100
24     H24    -2.1655    1.4189   -0.2158 H        1 ZINC000000006014    0.1500
25     H25    -4.3178    3.1530   -0.1921 H        1 ZINC000000006014    0.0900
26     H26    -3.3513    2.4241    1.1164 H        1 ZINC000000006014    0.1000
27     H27    -5.2063    3.9527    1.9346 H        1 ZINC000000006014    0.1100
28     H28    -3.5803    4.4294    2.4826 H        1 ZINC000000006014    0.0600
29     H29    -3.3825    7.2041    0.1642 H        1 ZINC000000006014    0.1100
30     H30    -2.5158    6.3272    1.4492 H        1 ZINC000000006014    0.0600
31     H31    -1.4969    5.7317   -0.6764 H        1 ZINC000000006014    0.1000
32     H32    -3.0877    5.3409   -1.3792 H        1 ZINC000000006014    0.0900
33     H33     0.9290    5.8967   -1.2207 H        1 ZINC000000006014    0.1200
34     H34     0.8112    8.3385   -0.9455 H        1 ZINC000000006014    0.1300
35     H35     2.0504    9.4367    0.8741 H        1 ZINC000000006014    0.1200
36     H36     3.4126    8.1006    2.4271 H        1 ZINC000000006014    0.1300
37     H37     3.5379    5.6572    2.1703 H        1 ZINC000000006014    0.1300
38     H38     4.4576    4.0826    0.3866 H        1 ZINC000000006014    0.1400
39     H39     4.5951    1.6445    0.1218 H        1 ZINC000000006014    0.1400
40     H40     2.5499    0.3042   -0.1230 H        1 ZINC000000006014    0.1400
@<TRIPOS>BOND
1     1     2     2
2     2     23    1
3     2     3     1
4     3     4     2
5     3     24    1
6     4     5     1
7     4     11    1
8     5     10    1
9     5     6     1
10    6     7     1
11    6     25    1
12    6     26    1
13    7     8     1
14    7     27    1
15    7     28    1
16    8     9     1
17    9     10    1
18    9     29    1
19    9     30    1
20    10    31    1
21    10    32    1
22    11    12    1
23    12    23    ar
24    12    13    ar
25    13    14    1
26    13    20    ar
27    14    19    ar
28    14    15    ar
29    15    16    ar
30    15    33    1
31    16    17    ar
32    16    34    1
33    17    18    ar
34    17    35    1
35    18    19    ar
36    18    36    1
37    19    37    1
38    20    21    ar
39    20    38    1
40    21    22    ar
41    21    39    1
42    22    23    ar
43    22    40    1
@<TRIPOS>SUBSTRUCTURE
1   ZINC000000006014 1     RESIDUE    1   A     ZIN   1
