@<TRIPOS>MOLECULE
ZINC000084688292
66    71    1     0     0
SMALL
USER_CHARGES
@<TRIPOS>ATOM
1      C1     -0.0497    1.4450    0.2007 C.3      1 ZINC000084688292   -0.0500
2      N2     -0.0312   -0.0238    0.1876 N.4      1 ZINC000084688292   -0.3800
3      H3      0.4545   -0.3467   -0.6357 H        1 ZINC000084688292    0.4300
4      C4      0.6587   -0.5156    1.3877 C.3      1 ZINC000084688292   -0.0500
5      C5     -1.4099   -0.5307    0.1731 C.3      1 ZINC000084688292    0.0200
6      C6     -2.1278   -0.0252   -1.0813 C.3      1 ZINC000084688292   -0.1400
7      C7     -3.5432   -0.6057   -1.1219 C.3      1 ZINC000084688292    0.0700
8      N8     -3.4720   -2.0723   -1.1344 N.3      1 ZINC000084688292   -0.4700
9      C9     -4.7335   -2.6308   -1.3030 C.ar     1 ZINC000084688292    0.3300
10     C10    -4.8682   -4.0218   -1.3348 C.ar     1 ZINC000084688292   -0.1500
11     C11    -6.1087   -4.5776   -1.5007 C.ar     1 ZINC000084688292   -0.0300
12     C12    -7.2045   -3.7270   -1.6333 C.ar     1 ZINC000084688292   -0.0100
13     N13    -8.5541   -3.9248   -1.8103 N.pl3    1 ZINC000084688292   -0.5500
14     C14    -9.1352   -2.6876   -1.8730 C.2      1 ZINC000084688292    0.2500
15     C15   -10.5795   -2.4343   -2.0573 C.2      1 ZINC000084688292    0.4800
16     O16   -11.3381   -3.3619   -2.2603 O.2      1 ZINC000084688292   -0.4200
17     C17   -11.1012   -1.0534   -1.9946 C.ar     1 ZINC000084688292   -0.1400
18     C18   -12.4811   -0.8259   -2.0364 C.ar     1 ZINC000084688292   -0.0500
19     C19   -12.9750    0.4578   -1.9789 C.ar     1 ZINC000084688292   -0.0900
20     C20   -12.1008    1.5417   -1.8786 C.ar     1 ZINC000084688292    0.0300
21     C21   -12.6165    2.8763   -1.8190 C.1      1 ZINC000084688292    0.2400
22     N22   -13.0256    3.9350   -1.7717 N.1      1 ZINC000084688292   -0.3800
23     C23   -10.7102    1.3198   -1.8356 C.ar     1 ZINC000084688292   -0.0200
24     C24    -9.7784    2.4637   -1.7293 C.ar     1 ZINC000084688292   -0.1000
25     C25    -9.7601    3.2808   -0.5713 C.ar     1 ZINC000084688292    0.0000
26     C26   -10.6095    3.0512    0.5163 C.ar     1 ZINC000084688292   -0.1200
27     C27   -10.5454    3.8717    1.6034 C.ar     1 ZINC000084688292   -0.0900
28     C28    -9.6465    4.9351    1.6470 C.ar     1 ZINC000084688292   -0.1200
29     C29    -8.8052    5.1872    0.6059 C.ar     1 ZINC000084688292   -0.0800
30     C30    -8.8438    4.3626   -0.5300 C.ar     1 ZINC000084688292   -0.1100
31     C31    -7.9997    4.5752   -1.6320 C.ar     1 ZINC000084688292    0.1500
32     N32    -8.0624    3.7839   -2.6780 N.ar     1 ZINC000084688292   -0.4800
33     C33    -8.8973    2.7602   -2.7571 C.ar     1 ZINC000084688292    0.1100
34     C34   -10.2174    0.0204   -1.8882 C.ar     1 ZINC000084688292   -0.0500
35     N35    -8.2164   -1.7606   -1.7444 N.2      1 ZINC000084688292   -0.4300
36     C36    -7.0097   -2.3326   -1.5938 C.ar     1 ZINC000084688292    0.2700
37     N37    -5.7803   -1.8380   -1.4245 N.ar     1 ZINC000084688292   -0.4700
38     C38    -2.8288   -2.5831    0.0829 C.3      1 ZINC000084688292    0.0600
39     C39    -1.3921   -2.0617    0.1594 C.3      1 ZINC000084688292   -0.1400
40     H40     0.9733    1.8212    0.2115 H        1 ZINC000084688292    0.1300
41     H41    -0.5616    1.8099   -0.6897 H        1 ZINC000084688292    0.1300
42     H42    -0.5744    1.7939    1.0902 H        1 ZINC000084688292    0.1200
43     H43     1.6817   -0.1394    1.3984 H        1 ZINC000084688292    0.1300
44     H44     0.1340   -0.1667    2.2771 H        1 ZINC000084688292    0.1200
45     H45     0.6724   -1.6054    1.3779 H        1 ZINC000084688292    0.1200
46     H46    -1.9361   -0.1805    1.0611 H        1 ZINC000084688292    0.1400
47     H47    -2.1814    1.0632   -1.0563 H        1 ZINC000084688292    0.1000
48     H48    -1.5787   -0.3429   -1.9677 H        1 ZINC000084688292    0.1000
49     H49    -4.0962   -0.2764   -0.2422 H        1 ZINC000084688292    0.0600
50     H50    -4.0522   -0.2591   -2.0213 H        1 ZINC000084688292    0.1100
51     H51    -3.9992   -4.6543   -1.2295 H        1 ZINC000084688292    0.1500
52     H52    -6.2348   -5.6498   -1.5284 H        1 ZINC000084688292    0.1500
53     H53    -9.0079   -4.7795   -1.8782 H        1 ZINC000084688292    0.4400
54     H54   -13.1616   -1.6609   -2.1143 H        1 ZINC000084688292    0.1500
55     H55   -14.0412    0.6268   -2.0120 H        1 ZINC000084688292    0.1500
56     H56   -11.3111    2.2304    0.4948 H        1 ZINC000084688292    0.1300
57     H57   -11.2013    3.6947    2.4429 H        1 ZINC000084688292    0.1300
58     H58    -9.6164    5.5701    2.5201 H        1 ZINC000084688292    0.1300
59     H59    -8.1138    6.0155    0.6535 H        1 ZINC000084688292    0.1400
60     H60    -7.2955    5.3940   -1.6192 H        1 ZINC000084688292    0.1700
61     H61    -8.8985    2.1475   -3.6464 H        1 ZINC000084688292    0.1600
62     H62    -9.1525   -0.1563   -1.8557 H        1 ZINC000084688292    0.1900
63     H63    -3.3851   -2.2446    0.9570 H        1 ZINC000084688292    0.0600
64     H64    -2.8189   -3.6728    0.0586 H        1 ZINC000084688292    0.1100
65     H65    -0.8314   -2.4114   -0.7074 H        1 ZINC000084688292    0.1000
66     H66    -0.9200   -2.4283    1.0710 H        1 ZINC000084688292    0.1000
@<TRIPOS>BOND
1     1     2     1
2     1     40    1
3     1     41    1
4     1     42    1
5     2     3     1
6     2     4     1
7     2     5     1
8     4     43    1
9     4     44    1
10    4     45    1
11    5     39    1
12    5     6     1
13    5     46    1
14    6     7     1
15    6     47    1
16    6     48    1
17    7     8     1
18    7     49    1
19    7     50    1
20    8     9     1
21    8     38    1
22    9     37    ar
23    9     10    ar
24    10    11    ar
25    10    51    1
26    11    12    ar
27    11    52    1
28    12    36    ar
29    12    13    1
30    13    14    1
31    13    53    1
32    14    15    1
33    14    35    2
34    15    16    2
35    15    17    1
36    17    34    ar
37    17    18    ar
38    18    19    ar
39    18    54    1
40    19    20    ar
41    19    55    1
42    20    21    1
43    20    23    ar
44    21    22    3
45    23    24    1
46    23    34    ar
47    24    33    ar
48    24    25    ar
49    25    30    ar
50    25    26    ar
51    26    27    ar
52    26    56    1
53    27    28    ar
54    27    57    1
55    28    29    ar
56    28    58    1
57    29    30    ar
58    29    59    1
59    30    31    ar
60    31    32    ar
61    31    60    1
62    32    33    ar
63    33    61    1
64    34    62    1
65    35    36    1
66    36    37    ar
67    38    39    1
68    38    63    1
69    38    64    1
70    39    65    1
71    39    66    1
@<TRIPOS>SUBSTRUCTURE
1   ZINC000084688292 1     RESIDUE    1   A     ZIN   1
