@<TRIPOS>MOLECULE
ZINC000145579512
63    67    1     0     0
SMALL
USER_CHARGES
@<TRIPOS>ATOM
1      C1      1.3645    1.4812   -0.9712 C.3      1 ZINC000145579512    0.0200
2      O2      0.8566    0.1945   -0.6128 O.3      1 ZINC000145579512   -0.3100
3      C3      1.4738   -0.4489    0.4152 C.ar     1 ZINC000145579512    0.1000
4      C4      2.5399    0.1494    1.0663 C.ar     1 ZINC000145579512   -0.1500
5      C5      3.1679   -0.5028    2.1108 C.ar     1 ZINC000145579512   -0.1000
6      C6      2.7311   -1.7589    2.5098 C.ar     1 ZINC000145579512    0.1500
7      N7      3.3678   -2.4177    3.5678 N.pl3    1 ZINC000145579512   -0.6200
8      C8      3.8922   -1.6882    4.6233 C.2      1 ZINC000145579512    0.4900
9      N9      3.6997   -0.3874    4.6883 N.2      1 ZINC000145579512   -0.5200
10     C10     4.1991    0.3400    5.7029 C.2      1 ZINC000145579512    0.1800
11     C11     3.9591    1.8037    5.7384 C.ar     1 ZINC000145579512   -0.0500
12     C12     4.4761    2.5710    6.7818 C.ar     1 ZINC000145579512   -0.0800
13     C13     4.2541    3.9341    6.8173 C.ar     1 ZINC000145579512   -0.1300
14     C14     3.5199    4.5458    5.8215 C.ar     1 ZINC000145579512   -0.0700
15     C15     2.9967    3.7883    4.7710 C.ar     1 ZINC000145579512   -0.1300
16     C16     2.2102    4.4439    3.7046 C.2      1 ZINC000145579512    0.5500
17     O17     1.7556    3.7832    2.7911 O.2      1 ZINC000145579512   -0.5100
18     N18     1.9973    5.7741    3.7452 N.am     1 ZINC000145579512   -0.6600
19     C19     1.1683    6.3789    2.7951 C.ar     1 ZINC000145579512    0.1100
20     C20     1.4435    7.6653    2.3494 C.ar     1 ZINC000145579512   -0.1400
21     C21     0.6229    8.2597    1.4110 C.ar     1 ZINC000145579512   -0.1000
22     C22    -0.4718    7.5755    0.9151 C.ar     1 ZINC000145579512   -0.0300
23     C23    -1.3648    8.2270   -0.1091 C.3      1 ZINC000145579512   -0.1600
24     C24    -0.8570    7.9105   -1.4922 C.2      1 ZINC000145579512    0.5000
25     O25     0.1378    7.2199   -1.6332 O.co2    1 ZINC000145579512   -0.6900
26     O26    -1.4411    8.3451   -2.4703 O.co2    1 ZINC000145579512   -0.7000
27     C27    -0.7486    6.2946    1.3567 C.ar     1 ZINC000145579512   -0.1000
28     C28     0.0714    5.6923    2.2907 C.ar     1 ZINC000145579512   -0.1100
29     C29     3.2228    2.4138    4.7278 C.ar     1 ZINC000145579512   -0.0200
30     C30     4.9196   -0.2433    6.6966 C.2      1 ZINC000145579512   -0.0600
31     N31     5.1456   -1.5931    6.6715 N.pl3    1 ZINC000145579512   -0.3200
32     C32     5.8100   -2.4484    7.4961 C.2      1 ZINC000145579512   -0.0700
33     C33     5.6988   -3.6867    6.9592 C.2      1 ZINC000145579512    0.0200
34     N34     4.9863   -3.5996    5.8352 N.2      1 ZINC000145579512   -0.4600
35     C35     4.6338   -2.3407    5.6415 C.2      1 ZINC000145579512    0.1400
36     C36     1.6621   -2.3613    1.8592 C.ar     1 ZINC000145579512   -0.2000
37     C37     1.0300   -1.7058    0.8162 C.ar     1 ZINC000145579512    0.1200
38     O38    -0.0173   -2.2934    0.1780 O.3      1 ZINC000145579512   -0.3000
39     C39    -0.4123   -3.5881    0.6360 C.3      1 ZINC000145579512    0.0300
40     H40     2.4093    1.3897   -1.2680 H        1 ZINC000145579512    0.0500
41     H41     0.7844    1.8822   -1.8023 H        1 ZINC000145579512    0.1000
42     H42     1.2872    2.1532   -0.1165 H        1 ZINC000145579512    0.0700
43     H43     2.8810    1.1264    0.7573 H        1 ZINC000145579512    0.1400
44     H44     3.9995   -0.0350    2.6168 H        1 ZINC000145579512    0.1400
45     H45     3.4420   -3.3849    3.5624 H        1 ZINC000145579512    0.4300
46     H46     5.0512    2.0983    7.5643 H        1 ZINC000145579512    0.1300
47     H47     4.6566    4.5235    7.6279 H        1 ZINC000145579512    0.1400
48     H48     3.3493    5.6117    5.8548 H        1 ZINC000145579512    0.1300
49     H49     2.4190    6.3120    4.4335 H        1 ZINC000145579512    0.4000
50     H50     2.2981    8.2003    2.7366 H        1 ZINC000145579512    0.1200
51     H51     0.8361    9.2600    1.0643 H        1 ZINC000145579512    0.1200
52     H52    -2.3807    7.8476    0.0007 H        1 ZINC000145579512    0.0700
53     H53    -1.3621    9.3067    0.0407 H        1 ZINC000145579512    0.0700
54     H54    -1.6043    5.7630    0.9675 H        1 ZINC000145579512    0.1200
55     H55    -0.1453    4.6919    2.6352 H        1 ZINC000145579512    0.1300
56     H56     2.8206    1.8233    3.9179 H        1 ZINC000145579512    0.1500
57     H57     5.3132    0.3566    7.5039 H        1 ZINC000145579512    0.1700
58     H58     6.3286   -2.1882    8.4070 H        1 ZINC000145579512    0.1900
59     H59     6.1170   -4.5928    7.3721 H        1 ZINC000145579512    0.1900
60     H60     1.3220   -3.3385    2.1688 H        1 ZINC000145579512    0.1400
61     H61    -1.2562   -3.9413    0.0433 H        1 ZINC000145579512    0.1000
62     H62     0.4220   -4.2814    0.5294 H        1 ZINC000145579512    0.0500
63     H63    -0.7041   -3.5292    1.6845 H        1 ZINC000145579512    0.0500
@<TRIPOS>BOND
1     1     2     1
2     1     40    1
3     1     41    1
4     1     42    1
5     2     3     1
6     3     37    ar
7     3     4     ar
8     4     5     ar
9     4     43    1
10    5     6     ar
11    5     44    1
12    6     7     1
13    6     36    ar
14    7     8     1
15    7     45    1
16    8     35    1
17    8     9     2
18    9     10    1
19    10    11    1
20    10    30    2
21    11    29    ar
22    11    12    ar
23    12    13    ar
24    12    46    1
25    13    14    ar
26    13    47    1
27    14    15    ar
28    14    48    1
29    15    16    1
30    15    29    ar
31    16    17    2
32    16    18    am
33    18    19    1
34    18    49    1
35    19    28    ar
36    19    20    ar
37    20    21    ar
38    20    50    1
39    21    22    ar
40    21    51    1
41    22    23    1
42    22    27    ar
43    23    24    1
44    23    52    1
45    23    53    1
46    24    25    ar
47    24    26    ar
48    27    28    ar
49    27    54    1
50    28    55    1
51    29    56    1
52    30    31    1
53    30    57    1
54    31    35    1
55    31    32    1
56    32    33    2
57    32    58    1
58    33    34    1
59    33    59    1
60    34    35    2
61    36    37    ar
62    36    60    1
63    37    38    1
64    38    39    1
65    39    61    1
66    39    62    1
67    39    63    1
@<TRIPOS>SUBSTRUCTURE
1   ZINC000145579512 1     RESIDUE    1   A     ZIN   1
