@<TRIPOS>MOLECULE
ZINC000038343006
  42   44    0    0    0
SMALL
USER_CHARGES
NO_NAME
@<TRIPOS>ATOM
    1 C1        0.7024     0.5894     0.7536 C.3    1 <0>       0.0200
    2 O2        0.4838    -0.7698     0.3703 O.3    1 <0>      -0.3000
    3 C3       -0.7981    -1.1375     0.1036 C.ar   1 <0>       0.1500
    4 C4       -1.8182    -0.2088     0.2036 C.ar   1 <0>      -0.2200
    5 C5       -3.1352    -0.5875    -0.0711 C.ar   1 <0>       0.0100
    6 C6       -4.2242     0.3991     0.0339 C.2    1 <0>      -0.1000
    7 C7       -5.4267     0.0252     0.5026 C.2    1 <0>      -0.1000
    8 C8       -5.5999    -1.3068     1.1062 C.ar   1 <0>      -0.0300
    9 C9       -4.5748    -1.8641     1.8847 C.ar   1 <0>      -0.1200
   10 C10      -4.7327    -3.1052     2.4482 C.ar   1 <0>       0.1500
   11 O11      -3.7335    -3.6365     3.2003 O.3    1 <0>      -0.4900
   12 C12      -5.9310    -3.8370     2.2519 C.ar   1 <0>      -0.1000
   13 C13      -6.2950    -5.1507     2.7548 C.2    1 <0>      -0.1100
   14 C14      -7.4932    -5.5703     2.3976 C.2    1 <0>      -0.1900
   15 S15      -8.3124    -4.3878     1.3959 S.3    1 <0>       0.0900
   16 C16      -6.9500    -3.2770     1.4755 C.ar   1 <0>      -0.1300
   17 C17      -6.7823    -2.0119     0.9102 C.ar   1 <0>      -0.0900
   18 C18      -3.4168    -1.9041    -0.4461 C.ar   1 <0>      -0.2100
   19 C19      -2.3920    -2.8278    -0.5442 C.ar   1 <0>       0.1500
   20 O20      -2.6650    -4.1091    -0.9095 O.3    1 <0>      -0.3000
   21 C21      -4.0156    -4.4075    -1.2684 C.3    1 <0>       0.0300
   22 C22      -1.0812    -2.4462    -0.2752 C.ar   1 <0>       0.0300
   23 O23      -0.0754    -3.3571    -0.3729 O.3    1 <0>      -0.3100
   24 C24       0.5654    -3.4820    -1.6440 C.3    1 <0>       0.0400
   25 H25       1.7650     0.7488     0.9368 H      1 <0>       0.1000
   26 H26       0.3683     1.2506    -0.0460 H      1 <0>       0.0600
   27 H27       0.1406     0.8055     1.6623 H      1 <0>       0.0600
   28 H28      -1.5974     0.8077     0.4939 H      1 <0>       0.1400
   29 H29      -4.0560     1.4230    -0.2659 H      1 <0>       0.1400
   30 H30      -6.2661     0.7015     0.4366 H      1 <0>       0.1400
   31 H31      -3.6581    -1.3148     2.0407 H      1 <0>       0.1400
   32 H32      -3.7466    -3.3569     4.1259 H      1 <0>       0.3900
   33 H33      -5.6342    -5.7392     3.3740 H      1 <0>       0.1500
   34 H34      -7.9159    -6.5215     2.6855 H      1 <0>       0.1700
   35 H35      -7.5735    -1.5798     0.3155 H      1 <0>       0.1300
   36 H36      -4.4335    -2.2000    -0.6587 H      1 <0>       0.1400
   37 H37      -4.1090    -5.4732    -1.4776 H      1 <0>       0.1000
   38 H38      -4.6780    -4.1394    -0.4453 H      1 <0>       0.0600
   39 H39      -4.2901    -3.8376    -2.1561 H      1 <0>       0.0600
   40 H40       1.3462    -4.2402    -1.5844 H      1 <0>       0.0900
   41 H41      -0.1692    -3.7752    -2.3941 H      1 <0>       0.0400
   42 H42       1.0081    -2.5259    -1.9233 H      1 <0>       0.0400
@<TRIPOS>BOND
   1    1    2 1
   2    1   25 1
   3    1   26 1
   4    1   27 1
   5    2    3 1
   6    3   22 ar
   7    3    4 ar
   8    4    5 ar
   9    4   28 1
  10    5    6 1
  11    5   18 ar
  12    6    7 2
  13    6   29 1
  14    7    8 1
  15    7   30 1
  16    8   17 ar
  17    8    9 ar
  18    9   10 ar
  19    9   31 1
  20   10   11 1
  21   10   12 ar
  22   11   32 1
  23   12   16 ar
  24   12   13 1
  25   13   14 2
  26   13   33 1
  27   14   15 1
  28   14   34 1
  29   15   16 1
  30   16   17 ar
  31   17   35 1
  32   18   19 ar
  33   18   36 1
  34   19   20 1
  35   19   22 ar
  36   20   21 1
  37   21   37 1
  38   21   38 1
  39   21   39 1
  40   22   23 1
  41   23   24 1
  42   24   40 1
  43   24   41 1
  44   24   42 1
