@<TRIPOS>MOLECULE
ZINC000169633670
101   104   1     0     0
SMALL
USER_CHARGES
@<TRIPOS>ATOM
1      C1      0.0575    1.8613   -2.4143 C.3      1 ZINC000169633670    0.0300
2      O2      0.3328    0.5191   -2.0084 O.3      1 ZINC000169633670   -0.3600
3      C3      0.7757   -0.3289   -3.0685 C.3      1 ZINC000169633670    0.1300
4      H4      0.4149    0.0467   -4.0221 H        1 ZINC000169633670    0.0600
5      C5      2.2784   -0.3789   -3.0985 C.2      1 ZINC000169633670   -0.2000
6      C6      3.0163    0.3651   -2.3146 C.2      1 ZINC000169633670    0.0400
7      O7      4.3672    0.3863   -2.3765 O.3      1 ZINC000169633670   -0.3100
8      C8      5.0819   -0.7753   -2.7099 C.3      1 ZINC000169633670    0.2200
9      C9      5.2911   -0.9173   -4.2227 C.3      1 ZINC000169633670   -0.1600
10     O10     6.3756   -0.8571   -2.0709 O.3      1 ZINC000169633670   -0.2900
11     C11     6.6786   -2.1929   -2.0409 C.ar     1 ZINC000169633670    0.2200
12     C12     7.9055   -2.8507   -1.9831 C.ar     1 ZINC000169633670   -0.3000
13     C13     9.1667   -2.0314   -1.9339 C.3      1 ZINC000169633670   -0.0600
14     C14     8.0070   -4.2300   -1.9860 C.ar     1 ZINC000169633670    0.3500
15     O15     9.2387   -4.7898   -1.9217 O.3      1 ZINC000169633670   -0.6500
16     C16     6.8551   -5.0441   -2.0582 C.ar     1 ZINC000169633670   -0.1500
17     C17     6.9370   -6.4452   -2.1766 C.ar     1 ZINC000169633670    0.1300
18     O18     8.1466   -7.0576   -2.2338 O.3      1 ZINC000169633670   -0.4700
19     C19     5.7836   -7.2151   -2.2403 C.ar     1 ZINC000169633670    0.0600
20     C20     4.5325   -6.5991   -2.1521 C.ar     1 ZINC000169633670   -0.1500
21     C21     4.4434   -5.2287   -2.0157 C.ar     1 ZINC000169633670    0.1000
22     O22     3.2133   -4.6652   -1.8736 O.3      1 ZINC000169633670   -0.2800
23     C23     2.7317   -4.4867   -0.5402 C.3      1 ZINC000169633670    0.0300
24     C24     1.3166   -3.9703   -0.5821 C.2      1 ZINC000169633670    0.4900
25     O25     0.7730   -3.7679   -1.6546 O.co2    1 ZINC000169633670   -0.5900
26     O26     0.7152   -3.7549    0.4563 O.co2    1 ZINC000169633670   -0.7000
27     C27     5.5817   -4.4194   -2.0388 C.ar     1 ZINC000169633670    0.0600
28     C28     5.5020   -2.9578   -2.0852 C.ar     1 ZINC000169633670   -0.3900
29     C29     4.4109   -2.0381   -2.1598 C.2      1 ZINC000169633670    0.3600
30     O30     3.2573   -2.2126   -1.8398 O.2      1 ZINC000169633670   -0.3700
31     N31     5.8584   -8.6044   -2.4350 N.am     1 ZINC000169633670   -0.6400
32     C32     4.7866   -9.3760   -2.4075 C.2      1 ZINC000169633670    0.5600
33     O33     4.9022  -10.4141   -3.0537 O.2      1 ZINC000169633670   -0.5600
34     C34     3.5446   -9.2588   -1.7055 C.2      1 ZINC000169633670   -0.1400
35     C35     3.4742   -9.1734   -0.2023 C.3      1 ZINC000169633670   -0.1100
36     C36     2.3738   -9.1983   -2.3837 C.2      1 ZINC000169633670   -0.0600
37     C37     2.2916   -9.2901   -3.8286 C.2      1 ZINC000169633670   -0.1300
38     C38     1.2761   -8.8274   -4.5394 C.2      1 ZINC000169633670   -0.1200
39     C39     0.1060   -8.0955   -3.9309 C.3      1 ZINC000169633670   -0.1000
40     H40     0.2133   -8.0849   -2.8552 H        1 ZINC000169633670    0.0900
41     C41    -1.1805   -8.8559   -4.2871 C.3      1 ZINC000169633670   -0.1400
42     C42     0.0230   -6.6812   -4.5027 C.3      1 ZINC000169633670    0.1200
43     H43    -0.6175   -6.7066   -5.3886 H        1 ZINC000169633670    0.0400
44     O44     1.3323   -6.2594   -4.8973 O.3      1 ZINC000169633670   -0.5400
45     C45    -0.5637   -5.6810   -3.5012 C.3      1 ZINC000169633670   -0.0900
46     H46    -1.5740   -5.9923   -3.2557 H        1 ZINC000169633670    0.0600
47     C47     0.3158   -5.6752   -2.2454 C.3      1 ZINC000169633670   -0.1600
48     C48    -0.5383   -4.2857   -4.1208 C.3      1 ZINC000169633670    0.1400
49     H49     0.4508   -3.8515   -3.9540 H        1 ZINC000169633670    0.0900
50     O50    -0.6907   -4.4133   -5.5476 O.3      1 ZINC000169633670   -0.6000
51     C51    -1.6125   -3.3425   -3.6150 C.3      1 ZINC000169633670   -0.0600
52     H52    -2.4110   -3.3289   -4.3958 H        1 ZINC000169633670    0.0500
53     C53    -2.2976   -3.8049   -2.3374 C.3      1 ZINC000169633670   -0.1500
54     C54    -1.1265   -1.9065   -3.4878 C.3      1 ZINC000169633670    0.1100
55     H55    -1.8616   -1.3449   -2.8930 H        1 ZINC000169633670    0.0700
56     O56    -1.0956   -1.3152   -4.8167 O.3      1 ZINC000169633670   -0.3500
57     C57    -2.1753   -0.6142   -5.1969 C.2      1 ZINC000169633670    0.4500
58     C58    -2.2639   -0.0683   -6.5988 C.3      1 ZINC000169633670   -0.1500
59     O59    -3.0762   -0.4208   -4.4153 O.2      1 ZINC000169633670   -0.5300
60     C60     0.2360   -1.7499   -2.8322 C.3      1 ZINC000169633670   -0.0500
61     H61     0.9449   -2.4666   -3.2336 H        1 ZINC000169633670    0.1200
62     C62     0.1245   -1.9504   -1.3169 C.3      1 ZINC000169633670   -0.1100
63     H63     0.9804    2.3374   -2.7453 H        1 ZINC000169633670    0.0300
64     H64    -0.6612    1.8529   -3.2338 H        1 ZINC000169633670    0.0300
65     H65    -0.3569    2.4175   -1.5734 H        1 ZINC000169633670    0.0800
66     H66     2.7495   -1.0656   -3.7863 H        1 ZINC000169633670    0.1100
67     H67     2.5211    1.0121   -1.5800 H        1 ZINC000169633670    0.1600
68     H68     5.8398   -0.0528   -4.5964 H        1 ZINC000169633670    0.0700
69     H69     5.8594   -1.8246   -4.4274 H        1 ZINC000169633670    0.0800
70     H70     4.3226   -0.9754   -4.7196 H        1 ZINC000169633670    0.0700
71     H71     9.4266   -1.8266   -0.8954 H        1 ZINC000169633670    0.0300
72     H72     9.9774   -2.5836   -2.4093 H        1 ZINC000169633670    0.0600
73     H73     9.0096   -1.0906   -2.4615 H        1 ZINC000169633670    0.0400
74     H74     8.5012   -7.3093   -1.3701 H        1 ZINC000169633670    0.3800
75     H75     3.6202   -7.1719   -2.2214 H        1 ZINC000169633670    0.1400
76     H76     2.7547   -5.4414   -0.0147 H        1 ZINC000169633670    0.0200
77     H77     3.3649   -3.7693   -0.0181 H        1 ZINC000169633670    0.0300
78     H78     6.7359   -9.0110   -2.5846 H        1 ZINC000169633670    0.4200
79     H79     3.5228   -8.1287    0.1050 H        1 ZINC000169633670    0.0800
80     H80     2.5373   -9.6105    0.1430 H        1 ZINC000169633670    0.0700
81     H81     4.3117   -9.7192    0.2322 H        1 ZINC000169633670    0.0600
82     H82     1.4703   -9.0919   -1.8046 H        1 ZINC000169633670    0.1200
83     H83     3.1179   -9.7497   -4.3696 H        1 ZINC000169633670    0.1200
84     H84     1.2614   -8.9829   -5.6108 H        1 ZINC000169633670    0.1000
85     H85    -1.1262   -9.8688   -3.8883 H        1 ZINC000169633670    0.0500
86     H86    -2.0385   -8.3408   -3.8551 H        1 ZINC000169633670    0.0600
87     H87    -1.2897   -8.8975   -5.3709 H        1 ZINC000169633670    0.0500
88     H88     1.7397   -6.8204   -5.5714 H        1 ZINC000169633670    0.3600
89     H89     1.2646   -5.1874   -2.4686 H        1 ZINC000169633670    0.1400
90     H90    -0.1928   -5.1332   -1.4481 H        1 ZINC000169633670    0.1000
91     H91     0.5008   -6.7011   -1.9267 H        1 ZINC000169633670   -0.0100
92     H92     0.0038   -4.9353   -5.9722 H        1 ZINC000169633670    0.3700
93     H93    -1.5714   -3.8316   -1.5249 H        1 ZINC000169633670    0.1100
94     H94    -3.1004   -3.1123   -2.0845 H        1 ZINC000169633670    0.0400
95     H95    -2.7117   -4.8019   -2.4875 H        1 ZINC000169633670    0.0500
96     H96    -2.7400   -0.8049   -7.2461 H        1 ZINC000169633670    0.1000
97     H97    -2.8543    0.8479   -6.5953 H        1 ZINC000169633670    0.0900
98     H98    -1.2615    0.1467   -6.9690 H        1 ZINC000169633670    0.0900
99     H99    -0.3839   -2.8925   -1.1115 H        1 ZINC000169633670    0.1400
100    H100    1.1224   -1.9732   -0.8790 H        1 ZINC000169633670    0.0600
101    H101   -0.4442   -1.1283   -0.8825 H        1 ZINC000169633670   -0.0300
@<TRIPOS>BOND
1     1     2     1
2     1     63    1
3     1     64    1
4     1     65    1
5     2     3     1
6     3     4     1
7     3     60    1
8     3     5     1
9     5     6     2
10    5     66    1
11    6     7     1
12    6     67    1
13    7     8     1
14    8     29    1
15    8     9     1
16    8     10    1
17    9     68    1
18    9     69    1
19    9     70    1
20    10    11    1
21    11    28    ar
22    11    12    ar
23    12    13    1
24    12    14    ar
25    13    71    1
26    13    72    1
27    13    73    1
28    14    15    1
29    14    16    ar
30    16    27    ar
31    16    17    ar
32    17    18    1
33    17    19    ar
34    18    74    1
35    19    20    ar
36    19    31    1
37    20    21    ar
38    20    75    1
39    21    22    1
40    21    27    ar
41    22    23    1
42    23    24    1
43    23    76    1
44    23    77    1
45    24    25    ar
46    24    26    ar
47    27    28    ar
48    28    29    1
49    29    30    2
50    31    32    am
51    31    78    1
52    32    33    2
53    32    34    1
54    34    35    1
55    34    36    2
56    35    79    1
57    35    80    1
58    35    81    1
59    36    37    1
60    36    82    1
61    37    38    2
62    37    83    1
63    38    39    1
64    38    84    1
65    39    40    1
66    39    41    1
67    39    42    1
68    41    85    1
69    41    86    1
70    41    87    1
71    42    43    1
72    42    44    1
73    42    45    1
74    44    88    1
75    45    46    1
76    45    47    1
77    45    48    1
78    47    89    1
79    47    90    1
80    47    91    1
81    48    49    1
82    48    50    1
83    48    51    1
84    50    92    1
85    51    52    1
86    51    53    1
87    51    54    1
88    53    93    1
89    53    94    1
90    53    95    1
91    54    55    1
92    54    56    1
93    54    60    1
94    56    57    1
95    57    58    1
96    57    59    2
97    58    96    1
98    58    97    1
99    58    98    1
100   60    61    1
101   60    62    1
102   62    99    1
103   62    100   1
104   62    101   1
@<TRIPOS>SUBSTRUCTURE
1   ZINC000169633670 1     RESIDUE    1   A     ZIN   1
