@<TRIPOS>MOLECULE
ZINC000096270039
60    64    1     0     0
SMALL
USER_CHARGES
@<TRIPOS>ATOM
1      C1     -0.6167    1.5067   -2.1653 C.3      1 ZINC000096270039   -0.1700
2      C2     -0.6037   -0.0002   -2.1694 C.2      1 ZINC000096270039    0.5100
3      O3     -1.1367   -0.6088   -3.0730 O.2      1 ZINC000096270039   -0.5200
4      N4      0.0001   -0.6716   -1.1688 N.am     1 ZINC000096270039   -0.6800
5      C5     -0.0708   -2.0684   -1.1208 C.ar     1 ZINC000096270039    0.1400
6      C6     -0.1517   -2.7183    0.1045 C.ar     1 ZINC000096270039   -0.1400
7      C7     -0.2219   -4.0979    0.1563 C.ar     1 ZINC000096270039   -0.1000
8      C8     -0.2119   -4.8379   -1.0087 C.ar     1 ZINC000096270039   -0.1100
9      C9     -0.1304   -4.1942   -2.2433 C.ar     1 ZINC000096270039    0.0000
10     C10    -0.1195   -4.9871   -3.4957 C.2      1 ZINC000096270039    0.1200
11     N11    -0.6598   -4.6377   -4.6381 N.2      1 ZINC000096270039   -0.2200
12     N12    -0.4477   -5.6374   -5.5925 N.pl3    1 ZINC000096270039   -0.5100
13     C13     0.2612   -6.6662   -5.0207 C.ar     1 ZINC000096270039    0.0800
14     C14     0.7344   -7.8829   -5.5010 C.ar     1 ZINC000096270039   -0.0900
15     C15     1.4361   -8.7318   -4.6594 C.ar     1 ZINC000096270039   -0.0100
16     C16     1.9410  -10.0295   -5.1730 C.2      1 ZINC000096270039   -0.2000
17     C17     1.2197  -10.9586   -5.8647 C.2      1 ZINC000096270039    0.0700
18     N18     2.0442  -11.9887   -6.1455 N.pl3    1 ZINC000096270039   -0.3700
19     C19     1.6811  -13.2047   -6.8775 C.3      1 ZINC000096270039    0.1000
20     N20     3.3070  -11.6948   -5.6171 N.2      1 ZINC000096270039   -0.2900
21     C21     3.2536  -10.5234   -5.0403 C.2      1 ZINC000096270039    0.0600
22     C22     1.6722   -8.3695   -3.3226 C.ar     1 ZINC000096270039    0.2000
23     N23     2.3812   -9.2327   -2.4810 N.pl3    1 ZINC000096270039   -0.7400
24     C24     2.6285   -8.8570   -1.0867 C.3      1 ZINC000096270039    0.1500
25     C25     1.4226   -9.2500   -0.2311 C.3      1 ZINC000096270039   -0.1300
26     C26     1.6809   -8.8577    1.2250 C.3      1 ZINC000096270039   -0.1200
27     C27     2.9270   -9.5840    1.7356 C.3      1 ZINC000096270039   -0.1200
28     C28     4.1329   -9.1910    0.8799 C.3      1 ZINC000096270039   -0.1200
29     C29     3.8746   -9.5833   -0.5762 C.3      1 ZINC000096270039   -0.1300
30     C30     1.2072   -7.1652   -2.8381 C.ar     1 ZINC000096270039   -0.1400
31     C31     0.5030   -6.3019   -3.6831 C.ar     1 ZINC000096270039   -0.1100
32     C32    -0.0660   -2.8038   -2.2964 C.ar     1 ZINC000096270039   -0.0900
33     H33    -1.5023    1.8610   -1.6378 H        1 ZINC000096270039    0.1000
34     H34     0.2774    1.8764   -1.6633 H        1 ZINC000096270039    0.0800
35     H35    -0.6345    1.8727   -3.1919 H        1 ZINC000096270039    0.1000
36     H36     0.4838   -0.1866   -0.4820 H        1 ZINC000096270039    0.4100
37     H37    -0.1595   -2.1441    1.0191 H        1 ZINC000096270039    0.1300
38     H38    -0.2843   -4.5983    1.1114 H        1 ZINC000096270039    0.1300
39     H39    -0.2668   -5.9156   -0.9642 H        1 ZINC000096270039    0.1300
40     H40    -0.7533   -5.6092   -6.5127 H        1 ZINC000096270039    0.4400
41     H41     0.5551   -8.1658   -6.5278 H        1 ZINC000096270039    0.1300
42     H42     0.1775  -10.8830   -6.1378 H        1 ZINC000096270039    0.1800
43     H43     1.8558  -13.0534   -7.9427 H        1 ZINC000096270039    0.0800
44     H44     2.2898  -14.0369   -6.5240 H        1 ZINC000096270039    0.0900
45     H45     0.6275  -13.4284   -6.7103 H        1 ZINC000096270039    0.0900
46     H46     4.0714  -10.0243   -4.5418 H        1 ZINC000096270039    0.1800
47     H47     2.7092  -10.0801   -2.8205 H        1 ZINC000096270039    0.4000
48     H48     2.7839   -7.7800   -1.0227 H        1 ZINC000096270039    0.0800
49     H49     0.5349   -8.7326   -0.5948 H        1 ZINC000096270039    0.0700
50     H50     1.2672  -10.3270   -0.2951 H        1 ZINC000096270039    0.0600
51     H51     1.8363   -7.7808    1.2891 H        1 ZINC000096270039    0.0600
52     H52     0.8218   -9.1377    1.8346 H        1 ZINC000096270039    0.0600
53     H53     3.1110   -9.3045    2.7730 H        1 ZINC000096270039    0.0600
54     H54     2.7716  -10.6610    1.6716 H        1 ZINC000096270039    0.0600
55     H55     4.2883   -8.1140    0.9439 H        1 ZINC000096270039    0.0700
56     H56     5.0206   -9.7085    1.2436 H        1 ZINC000096270039    0.0700
57     H57     3.7192  -10.6603   -0.6402 H        1 ZINC000096270039    0.0700
58     H58     4.7337   -9.3033   -1.1858 H        1 ZINC000096270039    0.0700
59     H59     1.3895   -6.8881   -1.8103 H        1 ZINC000096270039    0.1300
60     H60    -0.0027   -2.3005   -3.2499 H        1 ZINC000096270039    0.1400
@<TRIPOS>BOND
1     1     2     1
2     1     33    1
3     1     34    1
4     1     35    1
5     2     3     2
6     2     4     am
7     4     5     1
8     4     36    1
9     5     32    ar
10    5     6     ar
11    6     7     ar
12    6     37    1
13    7     8     ar
14    7     38    1
15    8     9     ar
16    8     39    1
17    9     10    1
18    9     32    ar
19    10    31    1
20    10    11    2
21    11    12    1
22    12    13    1
23    12    40    1
24    13    31    ar
25    13    14    ar
26    14    15    ar
27    14    41    1
28    15    16    1
29    15    22    ar
30    16    21    1
31    16    17    2
32    17    18    1
33    17    42    1
34    18    19    1
35    18    20    1
36    19    43    1
37    19    44    1
38    19    45    1
39    20    21    2
40    21    46    1
41    22    23    1
42    22    30    ar
43    23    24    1
44    23    47    1
45    24    29    1
46    24    25    1
47    24    48    1
48    25    26    1
49    25    49    1
50    25    50    1
51    26    27    1
52    26    51    1
53    26    52    1
54    27    28    1
55    27    53    1
56    27    54    1
57    28    29    1
58    28    55    1
59    28    56    1
60    29    57    1
61    29    58    1
62    30    31    ar
63    30    59    1
64    32    60    1
@<TRIPOS>SUBSTRUCTURE
1   ZINC000096270039 1     RESIDUE    1   A     ZIN   1
