@<TRIPOS>MOLECULE
ZINC000000499303
33    35    1     0     0
SMALL
USER_CHARGES
@<TRIPOS>ATOM
1      N1      1.1312   -0.5779    0.4629 N.am     1 ZINC000000499303   -0.8600
2      C2      0.0021   -0.0041    0.0020 C.2      1 ZINC000000499303    0.5500
3      O3      0.0280    1.1329   -0.4193 O.2      1 ZINC000000499303   -0.5400
4      C4     -1.2926   -0.7753    0.0102 C.3      1 ZINC000000499303   -0.0500
5      H5     -1.8178   -0.5928    0.9478 H        1 ZINC000000499303    0.1100
6      C6     -2.1655   -0.3179   -1.1601 C.3      1 ZINC000000499303   -0.1000
7      C7     -1.2776    0.1177   -2.3228 C.3      1 ZINC000000499303   -0.1300
8      C8     -0.0051   -0.7248   -2.3697 C.3      1 ZINC000000499303   -0.1500
9      C9     -0.3760   -2.1941   -2.5857 C.3      1 ZINC000000499303   -0.0500
10     C10    -0.5930   -2.8580   -1.2510 C.2      1 ZINC000000499303   -0.1300
11     C11    -0.9999   -2.2510   -0.1235 C.2      1 ZINC000000499303    0.0700
12     N12    -1.1042   -3.1751    0.8829 N.pl3    1 ZINC000000499303   -0.5900
13     C13    -0.7488   -4.4216    0.4171 C.ar     1 ZINC000000499303    0.1100
14     C14    -0.6783   -5.6784    1.0083 C.ar     1 ZINC000000499303   -0.1200
15     C15    -0.2757   -6.7663    0.2655 C.ar     1 ZINC000000499303   -0.0900
16     C16     0.0640   -6.6228   -1.0737 C.ar     1 ZINC000000499303   -0.0600
17     Cl17    0.5704   -8.0082   -1.9891 Cl       1 ZINC000000499303   -0.0700
18     C18     0.0008   -5.3875   -1.6795 C.ar     1 ZINC000000499303   -0.0600
19     C19    -0.4081   -4.2755   -0.9402 C.ar     1 ZINC000000499303   -0.0900
20     H20     1.9645   -0.0815    0.4576 H        1 ZINC000000499303    0.4000
21     H21     1.1096   -1.4858    0.8035 H        1 ZINC000000499303    0.4000
22     H22    -2.8041   -1.1414   -1.4799 H        1 ZINC000000499303    0.0800
23     H23    -2.7864    0.5203   -0.8438 H        1 ZINC000000499303    0.0800
24     H24    -1.8241   -0.0040   -3.2579 H        1 ZINC000000499303    0.0600
25     H25    -1.0098    1.1669   -2.1973 H        1 ZINC000000499303    0.0900
26     H26     0.6260   -0.3847   -3.1908 H        1 ZINC000000499303    0.0700
27     H27     0.5348   -0.6206   -1.4286 H        1 ZINC000000499303    0.0900
28     H28    -1.2909   -2.2551   -3.1750 H        1 ZINC000000499303    0.0800
29     H29     0.4320   -2.6987   -3.1155 H        1 ZINC000000499303    0.0700
30     H30    -1.3870   -2.9801    1.7901 H        1 ZINC000000499303    0.4200
31     H31    -0.9386   -5.8012    2.0493 H        1 ZINC000000499303    0.1300
32     H32    -0.2233   -7.7404    0.7290 H        1 ZINC000000499303    0.1400
33     H33     0.2664   -5.2793   -2.7207 H        1 ZINC000000499303    0.1300
@<TRIPOS>BOND
1     1     2     am
2     1     20    1
3     1     21    1
4     2     3     2
5     2     4     1
6     4     5     1
7     4     11    1
8     4     6     1
9     6     7     1
10    6     22    1
11    6     23    1
12    7     8     1
13    7     24    1
14    7     25    1
15    8     9     1
16    8     26    1
17    8     27    1
18    9     10    1
19    9     28    1
20    9     29    1
21    10    19    1
22    10    11    2
23    11    12    1
24    12    13    1
25    12    30    1
26    13    19    ar
27    13    14    ar
28    14    15    ar
29    14    31    1
30    15    16    ar
31    15    32    1
32    16    17    1
33    16    18    ar
34    18    19    ar
35    18    33    1
@<TRIPOS>SUBSTRUCTURE
1   ZINC000000499303 1     RESIDUE    1   A     ZIN   1
