@<TRIPOS>MOLECULE
ZINC000003819930
53    58    1     0     0
SMALL
USER_CHARGES
@<TRIPOS>ATOM
1      O1      0.0592   -0.0452    0.4357 O.2      1 ZINC000003819930   -0.5400
2      C2      0.0111    1.1556    0.2329 C.2      1 ZINC000003819930    0.5600
3      N3     -1.1828    1.7400    0.0402 N.am     1 ZINC000003819930   -0.6200
4      C4     -1.2957    3.0966   -0.1931 C.ar     1 ZINC000003819930    0.2100
5      C5     -2.5426    3.6800   -0.3895 C.ar     1 ZINC000003819930   -0.1400
6      C6     -2.6400    5.0354   -0.6209 C.ar     1 ZINC000003819930   -0.0400
7      C7     -1.5023    5.8305   -0.6613 C.ar     1 ZINC000003819930   -0.0600
8      Cl8    -1.6500    7.5351   -0.9550 Cl       1 ZINC000003819930   -0.0500
9      C9     -0.2567    5.2735   -0.4690 C.ar     1 ZINC000003819930   -0.0500
10     C10    -0.1427    3.9009   -0.2333 C.ar     1 ZINC000003819930   -0.1400
11     C11     1.1699    3.2762   -0.0239 C.2      1 ZINC000003819930    0.3300
12     N12     2.3213    4.0249   -0.0546 N.pl3    1 ZINC000003819930   -0.7300
13     C13     2.4959    5.1388    0.8808 C.3      1 ZINC000003819930    0.1500
14     H14     1.5251    5.5775    1.1116 H        1 ZINC000003819930    0.1100
15     C15     3.1478    4.6299    2.1684 C.3      1 ZINC000003819930   -0.0400
16     N16     4.4242    5.3140    2.3886 N.4      1 ZINC000003819930   -0.3700
17     H17     4.8303    4.9647    3.2437 H        1 ZINC000003819930    0.4300
18     C18     5.3524    5.0402    1.2890 C.3      1 ZINC000003819930   -0.0100
19     C19     4.7737    5.5626   -0.0278 C.3      1 ZINC000003819930   -0.1300
20     C20     3.4039    6.2026    0.2499 C.3      1 ZINC000003819930   -0.1100
21     C21     3.5971    7.3373    1.2645 C.3      1 ZINC000003819930   -0.1300
22     C22     4.2181    6.7574    2.5292 C.3      1 ZINC000003819930   -0.0100
23     C23     1.2141    1.9006    0.2120 C.2      1 ZINC000003819930   -0.1900
24     C24     2.5057    1.2276    0.4279 C.2      1 ZINC000003819930    0.3600
25     N25     3.6656    1.8342    0.5358 N.2      1 ZINC000003819930   -0.5100
26     C26     4.6441    0.9153    0.7284 C.ar     1 ZINC000003819930    0.0500
27     C27     6.0283    1.0102    0.9018 C.ar     1 ZINC000003819930   -0.0800
28     C28     6.7748   -0.1326    1.0801 C.ar     1 ZINC000003819930   -0.1200
29     C29     6.1648   -1.3783    1.0892 C.ar     1 ZINC000003819930   -0.1000
30     C30     4.8000   -1.4899    0.9196 C.ar     1 ZINC000003819930   -0.1000
31     C31     4.0312   -0.3501    0.7385 C.ar     1 ZINC000003819930    0.0500
32     N32     2.6786   -0.1262    0.5526 N.pl3    1 ZINC000003819930   -0.5800
33     H33    -1.9855    1.1958    0.0653 H        1 ZINC000003819930    0.4300
34     H34    -3.4344    3.0714   -0.3609 H        1 ZINC000003819930    0.1500
35     H35    -3.6108    5.4834   -0.7727 H        1 ZINC000003819930    0.1500
36     H36     0.6265    5.8942   -0.5009 H        1 ZINC000003819930    0.1500
37     H37     3.0187    3.8161   -0.6956 H        1 ZINC000003819930    0.4200
38     H38     2.4838    4.8232    3.0109 H        1 ZINC000003819930    0.1300
39     H39     3.3220    3.5571    2.0860 H        1 ZINC000003819930    0.1500
40     H40     6.3037    5.5341    1.4872 H        1 ZINC000003819930    0.1300
41     H41     5.5143    3.9651    1.2116 H        1 ZINC000003819930    0.1300
42     H42     5.4457    6.3089   -0.4516 H        1 ZINC000003819930    0.1000
43     H43     4.6546    4.7358   -0.7280 H        1 ZINC000003819930    0.1000
44     H44     2.9664    6.5751   -0.6764 H        1 ZINC000003819930    0.1200
45     H45     4.2646    8.0910    0.8470 H        1 ZINC000003819930    0.1100
46     H46     2.6323    7.7887    1.4958 H        1 ZINC000003819930    0.1000
47     H47     3.5513    6.9339    3.3733 H        1 ZINC000003819930    0.1300
48     H48     5.1748    7.2443    2.7184 H        1 ZINC000003819930    0.1300
49     H49     6.5101    1.9767    0.8955 H        1 ZINC000003819930    0.1200
50     H50     7.8440   -0.0587    1.2136 H        1 ZINC000003819930    0.1300
51     H51     6.7622   -2.2670    1.2297 H        1 ZINC000003819930    0.1300
52     H52     4.3315   -2.4630    0.9277 H        1 ZINC000003819930    0.1300
53     H53     1.9830   -0.8012    0.5160 H        1 ZINC000003819930    0.4400
@<TRIPOS>BOND
1     1     2     2
2     2     23    1
3     2     3     am
4     3     4     1
5     3     33    1
6     4     10    ar
7     4     5     ar
8     5     6     ar
9     5     34    1
10    6     7     ar
11    6     35    1
12    7     8     1
13    7     9     ar
14    9     10    ar
15    9     36    1
16    10    11    1
17    11    12    1
18    11    23    2
19    12    13    1
20    12    37    1
21    13    14    1
22    13    20    1
23    13    15    1
24    15    16    1
25    15    38    1
26    15    39    1
27    16    17    1
28    16    22    1
29    16    18    1
30    18    19    1
31    18    40    1
32    18    41    1
33    19    20    1
34    19    42    1
35    19    43    1
36    20    21    1
37    20    44    1
38    21    22    1
39    21    45    1
40    21    46    1
41    22    47    1
42    22    48    1
43    23    24    1
44    24    32    1
45    24    25    2
46    25    26    1
47    26    31    ar
48    26    27    ar
49    27    28    ar
50    27    49    1
51    28    29    ar
52    28    50    1
53    29    30    ar
54    29    51    1
55    30    31    ar
56    30    52    1
57    31    32    1
58    32    53    1
@<TRIPOS>SUBSTRUCTURE
1   ZINC000003819930 1     RESIDUE    1   A     ZIN   1
