@<TRIPOS>MOLECULE
ZINC000013489169
  53   56    0    0    0
SMALL
USER_CHARGES
NO_NAME
@<TRIPOS>ATOM
    1 N1        0.0655     1.0064     0.0512 N.4    1 <0>      -0.6400
    2 H2        0.0881    -0.0024     0.0506 H      1 <0>       0.4400
    3 H3        1.0091     1.3639     0.0486 H      1 <0>       0.4400
    4 H4       -0.4199     1.3324    -0.7711 H      1 <0>       0.4400
    5 C5       -0.6343     1.4798     1.2529 C.3    1 <0>       0.0000
    6 C6       -0.6685     3.0095     1.2537 C.3    1 <0>      -0.1700
    7 C7       -1.3973     3.5026     2.5053 C.3    1 <0>       0.1400
    8 N8       -1.4301     4.9672     2.5061 N.pl3  1 <0>      -0.7200
    9 C9       -2.0413     5.6447     3.5456 C.ar   1 <0>       0.4500
   10 C10      -2.0780     7.0569     3.5435 C.ar   1 <0>      -0.2000
   11 C11      -1.5081     7.8126     2.5089 C.ar   1 <0>      -0.0300
   12 C12      -1.5896     9.1766     2.5868 C.ar   1 <0>      -0.1900
   13 C13      -2.2240     9.7754     3.6709 C.ar   1 <0>       0.1600
   14 N14      -2.7562     9.0645     4.6382 N.ar   1 <0>      -0.4800
   15 C15      -2.7105     7.7310     4.6196 C.ar   1 <0>       0.2000
   16 C16      -3.2758     6.9549     5.6467 C.ar   1 <0>      -0.2000
   17 C17      -3.1927     5.5773     5.5638 C.ar   1 <0>       0.2400
   18 C18      -3.7859     4.7515     6.6422 C.ar   1 <0>      -0.1200
   19 C19      -4.4233     5.3644     7.7208 C.ar   1 <0>      -0.0400
   20 C20      -4.9741     4.5946     8.7224 C.ar   1 <0>      -0.2000
   21 C21      -4.8944     3.2078     8.6584 C.ar   1 <0>       0.2400
   22 N22      -5.4525     2.4307     9.6732 N.pl3  1 <0>      -0.6300
   23 C23      -5.4860     0.9630     9.5720 C.3    1 <0>       0.0800
   24 C24      -4.9147     0.3759    10.8676 C.3    1 <0>       0.0500
   25 O25      -5.5957     0.9509    11.9854 O.3    1 <0>      -0.3800
   26 C26      -5.4273     2.3652    12.1090 C.3    1 <0>       0.0500
   27 C27      -6.0198     3.0539    10.8795 C.3    1 <0>       0.0800
   28 C28      -4.2593     2.5945     7.5840 C.ar   1 <0>      -0.2100
   29 C29      -3.7125     3.3602     6.5770 C.ar   1 <0>      -0.0200
   30 N30      -2.5945     4.9725     4.5357 N.ar   1 <0>      -0.5500
   31 H31      -1.6536     1.0936     1.2556 H      1 <0>       0.1400
   32 H32      -0.1099     1.1276     2.1412 H      1 <0>       0.1400
   33 H33       0.3508     3.3956     1.2510 H      1 <0>       0.0900
   34 H34      -1.1928     3.3617     0.3654 H      1 <0>       0.0900
   35 H35      -2.4166     3.1164     2.5080 H      1 <0>       0.0800
   36 H36      -0.8730     3.1504     3.3936 H      1 <0>       0.0800
   37 H37      -1.0231     5.4618     1.7777 H      1 <0>       0.4100
   38 H38      -1.0186     7.3321     1.6747 H      1 <0>       0.1300
   39 H39      -1.1610     9.7884     1.8068 H      1 <0>       0.1400
   40 H40      -2.2797    10.8529     3.7182 H      1 <0>       0.1700
   41 H41      -3.7658     7.4265     6.4857 H      1 <0>       0.1500
   42 H42      -4.4848     6.4415     7.7712 H      1 <0>       0.1300
   43 H43      -5.4678     5.0687     9.5578 H      1 <0>       0.1300
   44 H44      -6.5146     0.6276     9.4392 H      1 <0>       0.0700
   45 H45      -4.8816     0.6396     8.7245 H      1 <0>       0.0900
   46 H46      -5.0568    -0.7048    10.8714 H      1 <0>       0.1100
   47 H47      -3.8508     0.6042    10.9327 H      1 <0>       0.0600
   48 H48      -5.9382     2.7157    13.0058 H      1 <0>       0.1100
   49 H49      -4.3653     2.6007    12.1786 H      1 <0>       0.0600
   50 H50      -5.7714     4.1151    10.8977 H      1 <0>       0.1000
   51 H51      -7.1027     2.9299    10.8754 H      1 <0>       0.0700
   52 H52      -4.1986     1.5173     7.5364 H      1 <0>       0.1200
   53 H53      -3.2198     2.8835     5.7425 H      1 <0>       0.1300
@<TRIPOS>BOND
   1    1    2 1
   2    1    3 1
   3    1    4 1
   4    1    5 1
   5    5    6 1
   6    5   31 1
   7    5   32 1
   8    6    7 1
   9    6   33 1
  10    6   34 1
  11    7    8 1
  12    7   35 1
  13    7   36 1
  14    8    9 1
  15    8   37 1
  16    9   30 ar
  17    9   10 ar
  18   10   15 ar
  19   10   11 ar
  20   11   12 ar
  21   11   38 1
  22   12   13 ar
  23   12   39 1
  24   13   14 ar
  25   13   40 1
  26   14   15 ar
  27   15   16 ar
  28   16   17 ar
  29   16   41 1
  30   17   18 1
  31   17   30 ar
  32   18   29 ar
  33   18   19 ar
  34   19   20 ar
  35   19   42 1
  36   20   21 ar
  37   20   43 1
  38   21   22 1
  39   21   28 ar
  40   22   27 1
  41   22   23 1
  42   23   24 1
  43   23   44 1
  44   23   45 1
  45   24   25 1
  46   24   46 1
  47   24   47 1
  48   25   26 1
  49   26   27 1
  50   26   48 1
  51   26   49 1
  52   27   50 1
  53   27   51 1
  54   28   29 ar
  55   28   52 1
  56   29   53 1
