@<TRIPOS>MOLECULE
ZINC000000137119
  20   20    0    0    0
SMALL
USER_CHARGES
NO_NAME
@<TRIPOS>ATOM
    1 C1       -0.0173     1.4248     0.0099 C.3    1 <0>       0.0200
    2 O2        0.0021    -0.0041     0.0020 O.3    1 <0>      -0.2900
    3 C3       -1.1961    -0.6352     0.0101 C.2    1 <0>       0.1100
    4 C4       -2.3373     0.0816     0.0192 C.2    1 <0>      -0.2800
    5 C5       -3.6392    -0.6018     0.0274 C.2    1 <0>       0.4300
    6 O6       -4.6654     0.0510     0.0356 O.2    1 <0>      -0.4400
    7 C7       -3.7062    -2.0707     0.0253 C.2    1 <0>      -0.2800
    8 C8       -2.5732    -2.8004     0.0167 C.2    1 <0>       0.1100
    9 O9       -2.6369    -4.1531     0.0151 O.3    1 <0>      -0.2900
   10 C10      -3.9393    -4.7413     0.0230 C.3    1 <0>       0.0200
   11 C11      -1.2558    -2.1178     0.0027 C.2    1 <0>       0.4400
   12 O12      -0.2321    -2.7689    -0.0056 O.2    1 <0>      -0.3600
   13 H13       1.0053     1.8021     0.0021 H      1 <0>       0.1100
   14 H14      -0.5445     1.7859    -0.8732 H      1 <0>       0.0700
   15 H15      -0.5275     1.7763     0.9067 H      1 <0>       0.0700
   16 H16      -2.2954     1.1608     0.0208 H      1 <0>       0.1600
   17 H17      -4.6659    -2.5660     0.0310 H      1 <0>       0.1600
   18 H18      -3.8475    -5.8274     0.0208 H      1 <0>       0.1100
   19 H19      -4.4759    -4.4238     0.9170 H      1 <0>       0.0700
   20 H20      -4.4878    -4.4212    -0.8629 H      1 <0>       0.0700
@<TRIPOS>BOND
   1    1    2 1
   2    1   13 1
   3    1   14 1
   4    1   15 1
   5    2    3 1
   6    3   11 1
   7    3    4 2
   8    4    5 1
   9    4   16 1
  10    5    6 2
  11    5    7 1
  12    7    8 2
  13    7   17 1
  14    8    9 1
  15    8   11 1
  16    9   10 1
  17   10   18 1
  18   10   19 1
  19   10   20 1
  20   11   12 2
