@<TRIPOS>MOLECULE
ZINC000004711783
39    42    1     0     0
SMALL
USER_CHARGES
@<TRIPOS>ATOM
1      O1      0.9463    1.6493    0.4132 O.co2    1 ZINC000004711783   -0.6900
2      C2     -0.0743    1.2685    0.9712 C.2      1 ZINC000004711783    0.5200
3      O3     -0.0351    0.3096    1.7309 O.co2    1 ZINC000004711783   -0.6700
4      C4     -1.3442    1.9655    0.7341 C.ar     1 ZINC000004711783   -0.1700
5      C5     -1.3923    3.0632   -0.1347 C.ar     1 ZINC000004711783   -0.0400
6      C6     -2.5729    3.7100   -0.3548 C.ar     1 ZINC000004711783   -0.1600
7      C7     -3.7388    3.2853    0.2813 C.ar     1 ZINC000004711783    0.1500
8      N8     -4.9366    3.9522    0.0489 N.pl3    1 ZINC000004711783   -0.6200
9      C9     -6.1207    3.2371   -0.0477 C.2      1 ZINC000004711783    0.3400
10     N10    -7.3048    3.7575   -0.1455 N.2      1 ZINC000004711783   -0.5400
11     C11    -8.3268    2.9161   -0.2287 C.2      1 ZINC000004711783    0.1400
12     C12    -9.7295    3.3820   -0.3449 C.ar     1 ZINC000004711783   -0.0200
13     C13   -10.7708    2.4431   -0.4242 C.ar     1 ZINC000004711783   -0.1000
14     C14   -12.0640    2.8441   -0.5311 C.ar     1 ZINC000004711783   -0.1100
15     C15   -12.3744    4.2153   -0.5631 C.ar     1 ZINC000004711783   -0.0500
16     C16   -13.7042    4.6556   -0.6726 C.ar     1 ZINC000004711783   -0.1100
17     C17   -13.9730    5.9897   -0.7006 C.ar     1 ZINC000004711783   -0.1200
18     C18   -12.9478    6.9306   -0.6223 C.ar     1 ZINC000004711783   -0.1200
19     C19   -11.6479    6.5424   -0.5154 C.ar     1 ZINC000004711783   -0.1000
20     C20   -11.3311    5.1725   -0.4833 C.ar     1 ZINC000004711783   -0.0500
21     C21   -10.0020    4.7378   -0.3684 C.ar     1 ZINC000004711783   -0.0700
22     C22    -8.0027    1.6111   -0.2009 C.2      1 ZINC000004711783   -0.2900
23     S23    -6.2506    1.4810   -0.0645 S.3      1 ZINC000004711783    0.1100
24     C24    -3.7085    2.1979    1.1465 C.ar     1 ZINC000004711783   -0.2000
25     C25    -2.5184    1.5305    1.3736 C.ar     1 ZINC000004711783    0.1700
26     O26    -2.4824    0.4685    2.2163 O.3      1 ZINC000004711783   -0.4700
27     H27    -0.4933    3.3981   -0.6307 H        1 ZINC000004711783    0.1400
28     H28    -2.6048    4.5561   -1.0253 H        1 ZINC000004711783    0.1200
29     H29    -4.9439    4.9175   -0.0455 H        1 ZINC000004711783    0.4200
30     H30   -10.5402    1.3882   -0.4003 H        1 ZINC000004711783    0.1300
31     H31   -12.8538    2.1100   -0.5919 H        1 ZINC000004711783    0.1300
32     H32   -14.5095    3.9387   -0.7346 H        1 ZINC000004711783    0.1300
33     H33   -14.9964    6.3243   -0.7852 H        1 ZINC000004711783    0.1200
34     H34   -13.1885    7.9832   -0.6471 H        1 ZINC000004711783    0.1200
35     H35   -10.8637    7.2825   -0.4552 H        1 ZINC000004711783    0.1300
36     H36    -9.1981    5.4559   -0.3026 H        1 ZINC000004711783    0.1400
37     H37    -8.6963    0.7852   -0.2569 H        1 ZINC000004711783    0.1800
38     H38    -4.6135    1.8721    1.6376 H        1 ZINC000004711783    0.1300
39     H39    -2.6469   -0.3814    1.7853 H        1 ZINC000004711783    0.3900
@<TRIPOS>BOND
1     1     2     ar
2     2     3     ar
3     2     4     1
4     4     25    ar
5     4     5     ar
6     5     6     ar
7     5     27    1
8     6     7     ar
9     6     28    1
10    7     8     1
11    7     24    ar
12    8     9     1
13    8     29    1
14    9     23    1
15    9     10    2
16    10    11    1
17    11    12    1
18    11    22    2
19    12    21    ar
20    12    13    ar
21    13    14    ar
22    13    30    1
23    14    15    ar
24    14    31    1
25    15    20    ar
26    15    16    ar
27    16    17    ar
28    16    32    1
29    17    18    ar
30    17    33    1
31    18    19    ar
32    18    34    1
33    19    20    ar
34    19    35    1
35    20    21    ar
36    21    36    1
37    22    23    1
38    22    37    1
39    24    25    ar
40    24    38    1
41    25    26    1
42    26    39    1
@<TRIPOS>SUBSTRUCTURE
1   ZINC000004711783 1     RESIDUE    1   A     ZIN   1
