@<TRIPOS>MOLECULE
ZINC000169313385
74    79    1     0     0
SMALL
USER_CHARGES
@<TRIPOS>ATOM
1      O1      0.7216   -0.5192    0.0897 O.2      1 ZINC000169313385   -0.4500
2      C2      0.7887    0.6976    0.0432 C.2      1 ZINC000169313385    0.4400
3      C3     -0.4150    1.5502   -0.0836 C.2      1 ZINC000169313385   -0.1000
4      N4     -1.5635    1.2234    0.4909 N.2      1 ZINC000169313385   -0.0900
5      N5     -1.6530    0.1379    1.1822 N.pl3    1 ZINC000169313385   -0.4500
6      C6     -2.8587   -0.2052    1.7853 C.ar     1 ZINC000169313385    0.1100
7      C7     -3.9694    0.6213    1.6371 C.ar     1 ZINC000169313385   -0.0900
8      C8     -5.1640    0.2850    2.2330 C.ar     1 ZINC000169313385   -0.1100
9      C9     -5.2613   -0.8887    2.9876 C.ar     1 ZINC000169313385    0.0300
10     C10    -6.5372   -1.2518    3.6258 C.2      1 ZINC000169313385   -0.1100
11     C11    -7.5068   -0.3302    3.7625 C.2      1 ZINC000169313385   -0.1100
12     C12    -8.7827   -0.6933    4.4008 C.ar     1 ZINC000169313385    0.0300
13     C13    -8.8789   -1.8650    5.1588 C.ar     1 ZINC000169313385   -0.1100
14     C14   -10.0737   -2.2015    5.7542 C.ar     1 ZINC000169313385   -0.0900
15     C15   -11.1855   -1.3771    5.6026 C.ar     1 ZINC000169313385    0.1100
16     N16   -12.3912   -1.7203    6.2057 N.pl3    1 ZINC000169313385   -0.4500
17     N17   -12.4783   -2.8011    6.9045 N.2      1 ZINC000169313385   -0.0900
18     C18   -13.6268   -3.1280    7.4789 C.2      1 ZINC000169313385   -0.1000
19     C19   -13.7664   -4.3478    8.2884 C.2      1 ZINC000169313385    0.0900
20     C20   -14.7368   -4.4127    9.2267 C.2      1 ZINC000169313385   -0.6900
21     S21   -14.9023   -5.8715   10.2009 S.o2     1 ZINC000169313385    2.7000
22     O22   -16.3039   -6.2567   10.1446 O.co2    1 ZINC000169313385   -1.0600
23     O23   -14.0358   -6.8756    9.6031 O.co2    1 ZINC000169313385   -1.0600
24     O24   -14.4853   -5.5242   11.5505 O.co2    1 ZINC000169313385   -1.0600
25     C25   -15.6494   -3.2964    9.4478 C.ar     1 ZINC000169313385    0.0200
26     C26   -16.4780   -3.2547   10.5806 C.ar     1 ZINC000169313385   -0.0800
27     C27   -17.3156   -2.1817   10.7311 C.ar     1 ZINC000169313385   -0.1400
28     C28   -17.3294   -1.1719    9.7757 C.ar     1 ZINC000169313385    0.0700
29     N29   -16.5495   -1.2180    8.7184 N.ar     1 ZINC000169313385   -0.4300
30     C30   -15.7172   -2.2320    8.5219 C.ar     1 ZINC000169313385    0.0400
31     C31   -14.8333   -2.2806    7.3437 C.2      1 ZINC000169313385    0.4400
32     O32   -15.0798   -1.6653    6.3201 O.2      1 ZINC000169313385   -0.4500
33     C33   -11.0931   -0.2095    4.8490 C.ar     1 ZINC000169313385   -0.0500
34     C34    -9.9004    0.1357    4.2553 C.ar     1 ZINC000169313385   -0.6300
35     S35    -9.7845    1.6134    3.3026 S.o2     1 ZINC000169313385    2.7000
36     O36    -9.2436    2.6381    4.1820 O.co2    1 ZINC000169313385   -1.0600
37     O37    -8.8951    1.3253    2.1882 O.co2    1 ZINC000169313385   -1.0500
38     O38   -11.1322    1.9320    2.8572 O.co2    1 ZINC000169313385   -1.0700
39     C39    -4.1433   -1.7172    3.1340 C.ar     1 ZINC000169313385   -0.6300
40     S40    -4.2603   -3.1969    4.0835 S.o2     1 ZINC000169313385    2.7000
41     O41    -4.8092   -4.2173    3.2040 O.co2    1 ZINC000169313385   -1.0600
42     O42    -2.9117   -3.5217    4.5217 O.co2    1 ZINC000169313385   -1.0700
43     O43    -5.1434   -2.9083    5.2028 O.co2    1 ZINC000169313385   -1.0500
44     C44    -2.9536   -1.3776    2.5313 C.ar     1 ZINC000169313385   -0.0500
45     C45    -0.2709    2.7785   -0.8792 C.2      1 ZINC000169313385    0.0900
46     C46     0.9539    3.3284   -1.0331 C.2      1 ZINC000169313385   -0.6900
47     S47     1.1275    4.8027   -1.9822 S.o2     1 ZINC000169313385    2.7000
48     O48     2.2023    4.5653   -2.9332 O.co2    1 ZINC000169313385   -1.0600
49     O49    -0.1479    5.0275   -2.6448 O.co2    1 ZINC000169313385   -1.0600
50     O50     1.4518    5.8682   -1.0465 O.co2    1 ZINC000169313385   -1.0600
51     C51     2.1351    2.7229   -0.4279 C.ar     1 ZINC000169313385    0.0200
52     C52     3.3525    3.4200   -0.3664 C.ar     1 ZINC000169313385   -0.0800
53     C53     4.4268    2.7972    0.2109 C.ar     1 ZINC000169313385   -0.1400
54     C54     4.2938    1.5089    0.7163 C.ar     1 ZINC000169313385    0.0700
55     N55     3.1500    0.8637    0.6561 N.ar     1 ZINC000169313385   -0.4300
56     C56     2.0757    1.4185    0.1159 C.ar     1 ZINC000169313385    0.0400
57     H57    -0.8796   -0.4391    1.2814 H        1 ZINC000169313385    0.4000
58     H58    -3.8936    1.5274    1.0543 H        1 ZINC000169313385    0.1400
59     H59    -6.0250    0.9269    2.1182 H        1 ZINC000169313385    0.1500
60     H60    -6.6945   -2.2584    3.9843 H        1 ZINC000169313385    0.1500
61     H61    -7.3495    0.6763    3.4041 H        1 ZINC000169313385    0.1500
62     H62    -8.0170   -2.5050    5.2765 H        1 ZINC000169313385    0.1500
63     H63   -10.1487   -3.1062    6.3393 H        1 ZINC000169313385    0.1400
64     H64   -13.1664   -1.1468    6.1009 H        1 ZINC000169313385    0.4000
65     H65   -13.1002   -5.1837    8.1343 H        1 ZINC000169313385    0.1600
66     H66   -16.4552   -4.0474   11.3138 H        1 ZINC000169313385    0.1500
67     H67   -17.9650   -2.1199   11.5919 H        1 ZINC000169313385    0.1400
68     H68   -17.9955   -0.3317    9.9047 H        1 ZINC000169313385    0.1600
69     H69   -11.9574    0.4276    4.7334 H        1 ZINC000169313385    0.1400
70     H70    -2.0902   -2.0165    2.6439 H        1 ZINC000169313385    0.1400
71     H71    -1.1355    3.2366   -1.3364 H        1 ZINC000169313385    0.1600
72     H72     3.4393    4.4204   -0.7641 H        1 ZINC000169313385    0.1500
73     H73     5.3771    3.3064    0.2733 H        1 ZINC000169313385    0.1400
74     H74     5.1487    1.0277    1.1678 H        1 ZINC000169313385    0.1600
@<TRIPOS>BOND
1     1     2     2
2     2     56    1
3     2     3     1
4     3     4     2
5     3     45    1
6     4     5     1
7     5     6     1
8     5     57    1
9     6     44    ar
10    6     7     ar
11    7     8     ar
12    7     58    1
13    8     9     ar
14    8     59    1
15    9     10    1
16    9     39    ar
17    10    11    2
18    10    60    1
19    11    12    1
20    11    61    1
21    12    34    ar
22    12    13    ar
23    13    14    ar
24    13    62    1
25    14    15    ar
26    14    63    1
27    15    16    1
28    15    33    ar
29    16    17    1
30    16    64    1
31    17    18    2
32    18    31    1
33    18    19    1
34    19    20    2
35    19    65    1
36    20    21    1
37    20    25    1
38    21    22    ar
39    21    23    ar
40    21    24    ar
41    25    30    ar
42    25    26    ar
43    26    27    ar
44    26    66    1
45    27    28    ar
46    27    67    1
47    28    29    ar
48    28    68    1
49    29    30    ar
50    30    31    1
51    31    32    2
52    33    34    ar
53    33    69    1
54    34    35    1
55    35    36    ar
56    35    37    ar
57    35    38    ar
58    39    40    1
59    39    44    ar
60    40    41    ar
61    40    42    ar
62    40    43    ar
63    44    70    1
64    45    46    2
65    45    71    1
66    46    47    1
67    46    51    1
68    47    48    ar
69    47    49    ar
70    47    50    ar
71    51    56    ar
72    51    52    ar
73    52    53    ar
74    52    72    1
75    53    54    ar
76    53    73    1
77    54    55    ar
78    54    74    1
79    55    56    ar
@<TRIPOS>SUBSTRUCTURE
1   ZINC000169313385 1     RESIDUE    1   A     ZIN   1
