@<TRIPOS>MOLECULE
ZINC000000898099
  42   44    0    0    0
SMALL
USER_CHARGES
NO_NAME
@<TRIPOS>ATOM
    1 C1       -0.0624     1.4588    -0.0330 C.3    1 <0>       0.0900
    2 N2       -0.0425    -0.0060    -0.0433 N.am   1 <0>      -0.5100
    3 C3       -1.2333    -0.7140    -0.0238 C.2    1 <0>       0.3200
    4 C4       -1.1881    -2.1025    -0.0341 C.2    1 <0>      -0.1400
    5 C5        0.0661    -2.7495    -0.0640 C.2    1 <0>       0.5900
    6 O6        0.1318    -3.9656    -0.0740 O.2    1 <0>      -0.5100
    7 N7        1.1912    -2.0050    -0.0819 N.am   1 <0>      -0.5500
    8 C8        2.4961    -2.6702    -0.1130 C.3    1 <0>       0.0800
    9 C9        1.1327    -0.6621    -0.0772 C.2    1 <0>       0.7100
   10 O10       2.1675    -0.0237    -0.0942 O.2    1 <0>      -0.5300
   11 N11      -2.4999    -2.5318    -0.0103 N.pl3  1 <0>      -0.4000
   12 C12      -2.9620    -3.9221    -0.0095 C.3    1 <0>       0.0900
   13 C13      -2.9744    -4.4465     1.4032 C.2    1 <0>       0.5100
   14 O14      -2.6311    -3.7296     2.3192 O.2    1 <0>      -0.5000
   15 N15      -3.3670    -5.7122     1.6488 N.am   1 <0>      -0.6500
   16 C16      -3.2911    -6.2267     2.9410 C.ar   1 <0>       0.2100
   17 C17      -3.5357    -5.4065     4.0337 C.ar   1 <0>      -0.1300
   18 C18      -3.4595    -5.9184     5.3137 C.ar   1 <0>      -0.0700
   19 C19      -3.1398    -7.2506     5.5181 C.ar   1 <0>      -0.1400
   20 C20      -2.8941    -8.0800     4.4449 C.ar   1 <0>      -0.0700
   21 C21      -2.9727    -7.5779     3.1442 C.ar   1 <0>      -0.1700
   22 C22      -2.7110    -8.4602     1.9912 C.2    1 <0>       0.5700
   23 N23      -2.5032    -9.7777     2.1843 N.am   1 <0>      -0.8500
   24 O24      -2.6828    -7.9987     0.8666 O.2    1 <0>      -0.5500
   25 C25      -3.2746    -1.4297     0.0129 C.2    1 <0>       0.2800
   26 N26      -2.5207    -0.3601     0.0048 N.2    1 <0>      -0.4900
   27 H27       0.9600     1.8362    -0.0562 H      1 <0>       0.1000
   28 H28      -0.6033     1.8210    -0.9073 H      1 <0>       0.0800
   29 H29      -0.5585     1.8091     0.8721 H      1 <0>       0.0800
   30 H30       2.7988    -2.8282    -1.1481 H      1 <0>       0.0800
   31 H31       3.2344    -2.0457     0.3902 H      1 <0>       0.1000
   32 H32       2.4261    -3.6315     0.3959 H      1 <0>       0.0900
   33 H33      -3.9690    -3.9705    -0.4239 H      1 <0>       0.1400
   34 H34      -2.2898    -4.5287    -0.6164 H      1 <0>       0.1400
   35 H35      -3.7025    -6.2649     0.9256 H      1 <0>       0.4300
   36 H36      -3.7856    -4.3667     3.8826 H      1 <0>       0.1500
   37 H37      -3.6499    -5.2761     6.1608 H      1 <0>       0.1300
   38 H38      -3.0823    -7.6412     6.5233 H      1 <0>       0.1300
   39 H39      -2.6452    -9.1180     4.6097 H      1 <0>       0.1300
   40 H40      -2.5257   -10.1459     3.0815 H      1 <0>       0.4000
   41 H41      -2.3311   -10.3578     1.4262 H      1 <0>       0.4100
   42 H42      -4.3543    -1.4292     0.0344 H      1 <0>       0.2300
@<TRIPOS>BOND
   1    1    2 1
   2    1   27 1
   3    1   28 1
   4    1   29 1
   5    2    9 am
   6    2    3 1
   7    3   26 1
   8    3    4 2
   9    4    5 1
  10    4   11 1
  11    5    6 2
  12    5    7 am
  13    7    8 1
  14    7    9 am
  15    8   30 1
  16    8   31 1
  17    8   32 1
  18    9   10 2
  19   11   12 1
  20   11   25 1
  21   12   13 1
  22   12   33 1
  23   12   34 1
  24   13   14 2
  25   13   15 am
  26   15   16 1
  27   15   35 1
  28   16   21 ar
  29   16   17 ar
  30   17   18 ar
  31   17   36 1
  32   18   19 ar
  33   18   37 1
  34   19   20 ar
  35   19   38 1
  36   20   21 ar
  37   20   39 1
  38   21   22 1
  39   22   23 am
  40   22   24 2
  41   23   40 1
  42   23   41 1
  43   25   26 2
  44   25   42 1
