@<TRIPOS>MOLECULE
ZINC001244373305
31    32    1     0     0
SMALL
USER_CHARGES
@<TRIPOS>ATOM
1      C1      4.1314   -2.7692    0.2644 C.3      1 ZINC001244373305    0.1000
2      N2      2.6709   -2.7173    0.1608 N.pl3    1 ZINC001244373305   -0.7300
3      C3      1.9306   -2.0253    1.1128 C.ar     1 ZINC001244373305    0.4000
4      C4      2.5835   -1.3813    2.1555 C.ar     1 ZINC001244373305   -0.2300
5      C5      1.8263   -0.6911    3.1027 C.ar     1 ZINC001244373305    0.0600
6      C6      2.4796    0.0120    4.2332 C.ar     1 ZINC001244373305   -0.1200
7      C7      3.4554    0.9764    3.9852 C.ar     1 ZINC001244373305   -0.0500
8      C8      4.0610    1.6291    5.0375 C.ar     1 ZINC001244373305   -0.2100
9      C9      3.6994    1.3264    6.3453 C.ar     1 ZINC001244373305    0.2300
10     N10     4.3131    1.9884    7.4086 N.pl3    1 ZINC001244373305   -0.8800
11     C11     2.7262    0.3648    6.5949 C.ar     1 ZINC001244373305   -0.2000
12     C12     2.1145   -0.2863    5.5456 C.ar     1 ZINC001244373305   -0.0100
13     C13     1.0596   -1.3278    5.8166 C.3      1 ZINC001244373305   -0.1200
14     C14     0.4341   -0.6793    2.9578 C.ar     1 ZINC001244373305   -0.2200
15     C15    -0.1364   -1.3439    1.8939 C.ar     1 ZINC001244373305    0.1500
16     N16     0.6103   -1.9829    1.0124 N.ar     1 ZINC001244373305   -0.5500
17     H17     4.4123   -3.2373    1.2077 H        1 ZINC001244373305    0.0600
18     H18     4.5339   -3.3516   -0.5644 H        1 ZINC001244373305    0.0800
19     H19     4.5344   -1.7571    0.2267 H        1 ZINC001244373305    0.0600
20     H20     2.2204   -3.1657   -0.5719 H        1 ZINC001244373305    0.4100
21     H21     3.6602   -1.4143    2.2322 H        1 ZINC001244373305    0.1300
22     H22     3.7369    1.2115    2.9694 H        1 ZINC001244373305    0.1200
23     H23     4.8173    2.3759    4.8458 H        1 ZINC001244373305    0.1200
24     H24     4.9918    2.6595    7.2353 H        1 ZINC001244373305    0.4000
25     H25     4.0613    1.7778    8.3213 H        1 ZINC001244373305    0.4000
26     H26     2.4469    0.1309    7.6116 H        1 ZINC001244373305    0.1200
27     H27     0.0727   -0.8689    5.7593 H        1 ZINC001244373305    0.0800
28     H28     1.1345   -2.1225    5.0743 H        1 ZINC001244373305    0.0700
29     H29     1.2088   -1.7455    6.8123 H        1 ZINC001244373305    0.0700
30     H30    -0.1854   -0.1561    3.6712 H        1 ZINC001244373305    0.1300
31     H31    -1.2101   -1.3386    1.7772 H        1 ZINC001244373305    0.1600
@<TRIPOS>BOND
1     1     2     1
2     1     17    1
3     1     18    1
4     1     19    1
5     2     3     1
6     2     20    1
7     3     16    ar
8     3     4     ar
9     4     5     ar
10    4     21    1
11    5     6     1
12    5     14    ar
13    6     12    ar
14    6     7     ar
15    7     8     ar
16    7     22    1
17    8     9     ar
18    8     23    1
19    9     10    1
20    9     11    ar
21    10    24    1
22    10    25    1
23    11    12    ar
24    11    26    1
25    12    13    1
26    13    27    1
27    13    28    1
28    13    29    1
29    14    15    ar
30    14    30    1
31    15    16    ar
32    15    31    1
@<TRIPOS>SUBSTRUCTURE
1   ZINC001244373305 1     RESIDUE    1   A     ZIN   1
