@<TRIPOS>MOLECULE
ZINC000005659810
46    49    1     0     0
SMALL
USER_CHARGES
@<TRIPOS>ATOM
1      C1     -1.2242    1.1990    0.1740 C.3      1 ZINC000005659810   -0.1200
2      C2     -0.5630   -0.1521    0.0817 C.ar     1 ZINC000005659810   -0.1100
3      C3     -0.5524   -0.8359   -1.1178 C.ar     1 ZINC000005659810   -0.1100
4      C4      0.0543   -2.0759   -1.2034 C.ar     1 ZINC000005659810   -0.1300
5      C5      0.6523   -2.6347   -0.0890 C.ar     1 ZINC000005659810   -0.1100
6      C6      0.6457   -1.9558    1.1138 C.ar     1 ZINC000005659810   -0.1100
7      C7      0.0416   -0.7083    1.2020 C.ar     1 ZINC000005659810    0.1600
8      N8      0.0331   -0.0184    2.4179 N.pl3    1 ZINC000005659810   -0.6300
9      C9     -0.0760   -0.7158    3.6088 C.ar     1 ZINC000005659810    0.6000
10     N10    -0.1760   -0.0283    4.7428 N.ar     1 ZINC000005659810   -0.6100
11     C11    -0.2831   -0.6390    5.9139 C.ar     1 ZINC000005659810    0.5000
12     N12    -0.3866    0.0861    7.0829 N.pl3    1 ZINC000005659810   -0.6300
13     C13    -0.5076    1.4779    7.0337 C.ar     1 ZINC000005659810    0.1500
14     C14    -1.0261    2.0918    5.9008 C.ar     1 ZINC000005659810   -0.1200
15     C15    -1.1447    3.4672    5.8557 C.ar     1 ZINC000005659810   -0.1100
16     C16    -0.7476    4.2327    6.9364 C.ar     1 ZINC000005659810   -0.1300
17     C17    -0.2308    3.6245    8.0661 C.ar     1 ZINC000005659810   -0.1000
18     C18    -0.1148    2.2497    8.1200 C.ar     1 ZINC000005659810   -0.1200
19     C19     0.4483    1.5879    9.3513 C.3      1 ZINC000005659810   -0.1200
20     C20    -0.2891   -2.0560    5.9349 C.ar     1 ZINC000005659810   -0.2300
21     C21    -0.3989   -2.7797    7.1269 C.ar     1 ZINC000005659810   -0.0600
22     C22    -0.3997   -4.1434    7.0879 C.ar     1 ZINC000005659810   -0.1500
23     C23    -0.2927   -4.8239    5.8785 C.ar     1 ZINC000005659810   -0.0600
24     C24    -0.1842   -4.1479    4.6994 C.ar     1 ZINC000005659810   -0.1200
25     C25    -0.1802   -2.7463    4.7030 C.ar     1 ZINC000005659810    0.2300
26     N26    -0.0817   -2.0348    3.5705 N.ar     1 ZINC000005659810   -0.5800
27     H27    -0.4963    1.9764   -0.0584 H        1 ZINC000005659810    0.0700
28     H28    -2.0489    1.2492   -0.5370 H        1 ZINC000005659810    0.0700
29     H29    -1.6057    1.3486    1.1840 H        1 ZINC000005659810    0.0600
30     H30    -1.0187   -0.4022   -1.9901 H        1 ZINC000005659810    0.1200
31     H31     0.0605   -2.6090   -2.1426 H        1 ZINC000005659810    0.1200
32     H32     1.1249   -3.6033   -0.1591 H        1 ZINC000005659810    0.1200
33     H33     1.1127   -2.3929    1.9840 H        1 ZINC000005659810    0.1500
34     H34     0.1036    0.9490    2.4272 H        1 ZINC000005659810    0.4200
35     H35    -0.3754   -0.3698    7.9390 H        1 ZINC000005659810    0.4200
36     H36    -1.3358    1.4944    5.0561 H        1 ZINC000005659810    0.1500
37     H37    -1.5478    3.9452    4.9751 H        1 ZINC000005659810    0.1200
38     H38    -0.8407    5.3080    6.8983 H        1 ZINC000005659810    0.1200
39     H39     0.0785    4.2254    8.9085 H        1 ZINC000005659810    0.1300
40     H40    -0.3613    1.3642   10.0460 H        1 ZINC000005659810    0.0700
41     H41     0.9508    0.6627    9.0689 H        1 ZINC000005659810    0.0600
42     H42     1.1627    2.2580    9.8294 H        1 ZINC000005659810    0.0700
43     H43    -0.4821   -2.2626    8.0714 H        1 ZINC000005659810    0.1200
44     H44    -0.4841   -4.7026    8.0080 H        1 ZINC000005659810    0.1300
45     H45    -0.2953   -5.9038    5.8739 H        1 ZINC000005659810    0.1300
46     H46    -0.1016   -4.6891    3.7685 H        1 ZINC000005659810    0.1400
@<TRIPOS>BOND
1     1     2     1
2     1     27    1
3     1     28    1
4     1     29    1
5     2     7     ar
6     2     3     ar
7     3     4     ar
8     3     30    1
9     4     5     ar
10    4     31    1
11    5     6     ar
12    5     32    1
13    6     7     ar
14    6     33    1
15    7     8     1
16    8     9     1
17    8     34    1
18    9     26    ar
19    9     10    ar
20    10    11    ar
21    11    12    1
22    11    20    ar
23    12    13    1
24    12    35    1
25    13    18    ar
26    13    14    ar
27    14    15    ar
28    14    36    1
29    15    16    ar
30    15    37    1
31    16    17    ar
32    16    38    1
33    17    18    ar
34    17    39    1
35    18    19    1
36    19    40    1
37    19    41    1
38    19    42    1
39    20    25    ar
40    20    21    ar
41    21    22    ar
42    21    43    1
43    22    23    ar
44    22    44    1
45    23    24    ar
46    23    45    1
47    24    25    ar
48    24    46    1
49    25    26    ar
@<TRIPOS>SUBSTRUCTURE
1   ZINC000005659810 1     RESIDUE    1   A     ZIN   1
