@<TRIPOS>MOLECULE
ZINC000003881558
  31   33    0    0    0
SMALL
USER_CHARGES
NO_NAME
@<TRIPOS>ATOM
    1 O1       -0.1145     0.1116    -0.0073 O.2    1 <0>      -0.5400
    2 C2       -0.0917     1.3329     0.0036 C.2    1 <0>       0.4200
    3 C3       -1.2810     2.0758     0.0285 C.2    1 <0>      -0.4900
    4 C4       -1.2434     3.4532     0.0356 C.2    1 <0>       0.3200
    5 O5       -2.4122     4.1377     0.0686 O.3    1 <0>      -0.6800
    6 C6       -0.0416     4.1714     0.0105 C.2    1 <0>      -0.1500
    7 C7        1.1616     3.5337    -0.0186 C.2    1 <0>       0.1000
    8 O8        2.3137     4.2426    -0.0691 O.3    1 <0>      -0.2900
    9 C9        3.4781     3.6588     0.5261 C.3    1 <0>       0.1100
   10 C10       3.3163     3.6169     2.0238 C.ar   1 <0>      -0.1600
   11 C11       2.0540     3.6641     2.5833 C.ar   1 <0>      -0.0700
   12 C12       1.9023     3.6254     3.9563 C.ar   1 <0>      -0.1400
   13 C13       3.0181     3.5390     4.7765 C.ar   1 <0>       0.1300
   14 O14       2.8684     3.5005     6.1267 O.3    1 <0>      -0.5000
   15 C15       4.2861     3.4915     4.2175 C.ar   1 <0>      -0.1700
   16 C16       4.4353     3.5251     2.8398 C.ar   1 <0>       0.1400
   17 O17       5.6767     3.4788     2.2888 O.3    1 <0>      -0.4900
   18 C18       3.6308     2.2492    -0.0112 C.2    1 <0>       0.3500
   19 O19       4.6907     1.8356    -0.4174 O.2    1 <0>      -0.4200
   20 C20       2.4028     1.3979    -0.0120 C.2    1 <0>       0.0800
   21 O21       2.4722     0.0529    -0.0159 O.3    1 <0>      -0.4100
   22 C22       1.1870     2.0670    -0.0027 C.2    1 <0>      -0.1600
   23 H23      -2.2325     1.5650     0.0418 H      1 <0>       0.1100
   24 H24      -0.0693     5.2511     0.0139 H      1 <0>       0.1300
   25 H25       4.3577     4.2485     0.2679 H      1 <0>       0.1600
   26 H26       1.1843     3.7317     1.9465 H      1 <0>       0.1500
   27 H27       0.9145     3.6627     4.3913 H      1 <0>       0.1400
   28 H28       2.7790     2.6077     6.4872 H      1 <0>       0.3900
   29 H29       5.1558     3.4246     4.8542 H      1 <0>       0.1400
   30 H30       5.9914     2.5835     2.1030 H      1 <0>       0.3900
   31 H31       3.3553    -0.3412    -0.0182 H      1 <0>       0.4000
@<TRIPOS>BOND
   1    1    2 2
   2    2   22 1
   3    2    3 1
   4    3    4 2
   5    3   23 1
   6    4    5 1
   7    4    6 1
   8    6    7 2
   9    6   24 1
  10    7   22 1
  11    7    8 1
  12    8    9 1
  13    9   10 1
  14    9   18 1
  15    9   25 1
  16   10   16 ar
  17   10   11 ar
  18   11   12 ar
  19   11   26 1
  20   12   13 ar
  21   12   27 1
  22   13   14 1
  23   13   15 ar
  24   14   28 1
  25   15   16 ar
  26   15   29 1
  27   16   17 1
  28   17   30 1
  29   18   19 2
  30   18   20 1
  31   20   21 1
  32   20   22 2
  33   21   31 1
