@<TRIPOS>MOLECULE
ZINC000001145764
51    53    1     0     0
SMALL
USER_CHARGES
@<TRIPOS>ATOM
1      C1      2.8938    1.0217    0.9179 C.3      1 ZINC000001145764   -0.1500
2      C2      2.2426   -0.3536    0.7592 C.3      1 ZINC000001145764    0.0500
3      O3      2.1079   -0.6594   -0.6302 O.3      1 ZINC000001145764   -0.3000
4      C4      1.5431   -1.8552   -0.9472 C.ar     1 ZINC000001145764    0.1400
5      C5      1.1254   -2.7069    0.0539 C.ar     1 ZINC000001145764   -0.1600
6      C6      0.5428   -3.9403   -0.2769 C.ar     1 ZINC000001145764   -0.0400
7      C7      0.0971   -4.8481    0.7793 C.2      1 ZINC000001145764    0.0800
8      C8      0.4530   -6.1849    0.7385 C.2      1 ZINC000001145764   -0.2300
9      C9     -0.1134   -7.2893    1.5314 C.2      1 ZINC000001145764    0.5300
10     O10    -0.9991   -7.2149    2.3651 O.2      1 ZINC000001145764   -0.4800
11     N11     0.5479   -8.3997    1.1463 N.am     1 ZINC000001145764   -0.4100
12     C12     0.3205   -9.6851    1.6537 C.ar     1 ZINC000001145764    0.1700
13     C13    -0.6515   -9.8881    2.6245 C.ar     1 ZINC000001145764   -0.1500
14     C14    -0.8733  -11.1570    3.1229 C.ar     1 ZINC000001145764   -0.0900
15     C15    -0.1283  -12.2245    2.6565 C.ar     1 ZINC000001145764   -0.1400
16     C16     0.8404  -12.0257    1.6898 C.ar     1 ZINC000001145764   -0.1000
17     C17     1.0627  -10.7603    1.1829 C.ar     1 ZINC000001145764   -0.1300
18     N18     1.4906   -8.0820    0.1691 N.2      1 ZINC000001145764   -0.2300
19     C19     1.4752   -6.8149   -0.1106 C.2      1 ZINC000001145764    0.1400
20     C20     2.3534   -6.1142   -1.1150 C.3      1 ZINC000001145764   -0.0900
21     C21     0.3892   -4.2989   -1.6246 C.ar     1 ZINC000001145764   -0.1000
22     C22     0.8098   -3.4408   -2.6162 C.ar     1 ZINC000001145764   -0.0200
23     Cl23    0.6190   -3.8848   -4.2836 Cl       1 ZINC000001145764   -0.0300
24     C24     1.3815   -2.2169   -2.2856 C.ar     1 ZINC000001145764    0.0900
25     O25     1.7936   -1.3756   -3.2680 O.3      1 ZINC000001145764   -0.2900
26     C26     0.8390   -0.4307   -3.7557 C.3      1 ZINC000001145764    0.0700
27     C27     1.4711    0.4111   -4.8341 C.2      1 ZINC000001145764    0.4600
28     O28     2.6211    0.2213   -5.1523 O.2      1 ZINC000001145764   -0.4800
29     O29     0.7565    1.3717   -5.4411 O.3      1 ZINC000001145764   -0.3600
30     C30     1.4299    2.1433   -6.4704 C.3      1 ZINC000001145764    0.0400
31     H31     3.8785    1.0136    0.4506 H        1 ZINC000001145764    0.0700
32     H32     2.2703    1.7764    0.4386 H        1 ZINC000001145764    0.0700
33     H33     2.9965    1.2550    1.9777 H        1 ZINC000001145764    0.0800
34     H34     2.8661   -1.1083    1.2386 H        1 ZINC000001145764    0.0700
35     H35     1.2579   -0.3455    1.2266 H        1 ZINC000001145764    0.0700
36     H36     1.2465   -2.4256    1.0896 H        1 ZINC000001145764    0.1500
37     H37    -0.5098   -4.4754    1.5912 H        1 ZINC000001145764    0.1600
38     H38    -1.2332   -9.0547    2.9897 H        1 ZINC000001145764    0.1500
39     H39    -1.6291  -11.3155    3.8779 H        1 ZINC000001145764    0.1300
40     H40    -0.3031  -13.2157    3.0483 H        1 ZINC000001145764    0.1300
41     H41     1.4208  -12.8614    1.3278 H        1 ZINC000001145764    0.1300
42     H42     1.8194  -10.6057    0.4280 H        1 ZINC000001145764    0.1300
43     H43     3.0869   -6.8175   -1.5093 H        1 ZINC000001145764    0.0900
44     H44     1.7395   -5.7336   -1.9314 H        1 ZINC000001145764    0.1000
45     H45     2.8689   -5.2848   -0.6308 H        1 ZINC000001145764    0.0900
46     H46    -0.0582   -5.2470   -1.8841 H        1 ZINC000001145764    0.1500
47     H47    -0.0204   -0.9611   -4.1658 H        1 ZINC000001145764    0.1000
48     H48     0.5129    0.2117   -2.9377 H        1 ZINC000001145764    0.1000
49     H49     2.2935    2.6493   -6.0387 H        1 ZINC000001145764    0.0700
50     H50     1.7601    1.4765   -7.2668 H        1 ZINC000001145764    0.0700
51     H51     0.7416    2.8835   -6.8783 H        1 ZINC000001145764    0.1100
@<TRIPOS>BOND
1     1     2     1
2     1     31    1
3     1     32    1
4     1     33    1
5     2     3     1
6     2     34    1
7     2     35    1
8     3     4     1
9     4     24    ar
10    4     5     ar
11    5     6     ar
12    5     36    1
13    6     7     1
14    6     21    ar
15    7     8     2
16    7     37    1
17    8     19    1
18    8     9     1
19    9     10    2
20    9     11    am
21    11    12    1
22    11    18    1
23    12    17    ar
24    12    13    ar
25    13    14    ar
26    13    38    1
27    14    15    ar
28    14    39    1
29    15    16    ar
30    15    40    1
31    16    17    ar
32    16    41    1
33    17    42    1
34    18    19    2
35    19    20    1
36    20    43    1
37    20    44    1
38    20    45    1
39    21    22    ar
40    21    46    1
41    22    23    1
42    22    24    ar
43    24    25    1
44    25    26    1
45    26    27    1
46    26    47    1
47    26    48    1
48    27    28    2
49    27    29    1
50    29    30    1
51    30    49    1
52    30    50    1
53    30    51    1
@<TRIPOS>SUBSTRUCTURE
1   ZINC000001145764 1     RESIDUE    1   A     ZIN   1
