@<TRIPOS>MOLECULE
ZINC000103248035
71    73    1     0     0
SMALL
USER_CHARGES
@<TRIPOS>ATOM
1      C1     -4.1442   -0.5666    1.7773 C.3      1 ZINC000103248035   -0.1500
2      C2     -3.4925   -1.9223    1.4979 C.3      1 ZINC000103248035   -0.1200
3      C3     -4.5705   -2.9356    1.1079 C.3      1 ZINC000103248035   -0.1600
4      C4     -2.4887   -1.7792    0.3521 C.3      1 ZINC000103248035    0.1700
5      H5     -2.9889   -1.3542   -0.5182 H        1 ZINC000103248035    0.1000
6      C6     -1.3479   -0.8566    0.7858 C.3      1 ZINC000103248035   -0.6800
7      S7     -0.2075   -0.6110   -0.6034 S.o2     1 ZINC000103248035    2.4300
8      O8      0.3026   -1.8767   -0.9996 O.2      1 ZINC000103248035   -0.8700
9      O9     -0.8426    0.2146   -1.5699 O.2      1 ZINC000103248035   -0.9200
10     C10     1.1316    0.3342    0.1738 C.3      1 ZINC000103248035   -0.6000
11     C11     2.1487    0.7480   -0.8917 C.3      1 ZINC000103248035   -0.1400
12     C12     0.5535    1.5845    0.8398 C.3      1 ZINC000103248035   -0.1400
13     N13    -1.9478   -3.0969    0.0094 N.am     1 ZINC000103248035   -0.6200
14     C14    -1.5593   -3.3049   -1.2493 C.2      1 ZINC000103248035    0.5300
15     O15    -1.7112   -2.4088   -2.0523 O.2      1 ZINC000103248035   -0.4600
16     C16    -0.9435   -4.5891   -1.7254 C.3      1 ZINC000103248035   -0.0300
17     C17    -1.5344   -4.9622   -3.0865 C.3      1 ZINC000103248035   -0.1400
18     C18     0.5696   -4.4077   -1.8607 C.3      1 ZINC000103248035   -0.1600
19     C19     0.8582   -3.3479   -2.8926 C.2      1 ZINC000103248035    0.5100
20     O20    -0.0528   -2.6807   -3.3524 O.co2    1 ZINC000103248035   -0.6500
21     O21     2.0026   -3.1577   -3.2675 O.co2    1 ZINC000103248035   -0.7300
22     C22    -1.2319   -5.7084   -0.7218 C.3      1 ZINC000103248035   -0.1100
23     C23    -0.8815   -5.2023    0.6826 C.3      1 ZINC000103248035   -0.0600
24     H24     0.1329   -4.8034    0.6851 H        1 ZINC000103248035    0.1000
25     C25    -0.9806   -6.3377    1.6686 C.ar     1 ZINC000103248035   -0.0500
26     C26    -2.1809   -7.0014    1.8396 C.ar     1 ZINC000103248035   -0.1100
27     C27    -2.2726   -8.0435    2.7436 C.ar     1 ZINC000103248035   -0.1000
28     C28    -1.1642   -8.4217    3.4772 C.ar     1 ZINC000103248035   -0.1200
29     C29     0.0377   -7.7576    3.3065 C.ar     1 ZINC000103248035   -0.0300
30     Cl30    1.4307   -8.2325    4.2272 Cl       1 ZINC000103248035   -0.0700
31     C31     0.1303   -6.7188    2.3977 C.ar     1 ZINC000103248035   -0.1000
32     C32    -1.8624   -4.0963    1.0668 C.3      1 ZINC000103248035    0.1900
33     H33    -2.8500   -4.5297    1.2249 H        1 ZINC000103248035    0.0900
34     C34    -1.3975   -3.4384    2.3404 C.ar     1 ZINC000103248035   -0.0800
35     C35    -0.1993   -2.7494    2.3645 C.ar     1 ZINC000103248035   -0.1000
36     C36     0.2277   -2.1457    3.5323 C.ar     1 ZINC000103248035   -0.1200
37     C37    -0.5444   -2.2312    4.6772 C.ar     1 ZINC000103248035   -0.0300
38     Cl38   -0.0091   -1.4728    6.1441 Cl       1 ZINC000103248035   -0.0700
39     C39    -1.7435   -2.9209    4.6524 C.ar     1 ZINC000103248035   -0.1100
40     C40    -2.1721   -3.5193    3.4825 C.ar     1 ZINC000103248035   -0.0900
41     H41    -4.8593   -0.6685    2.5936 H        1 ZINC000103248035    0.0600
42     H42    -3.3762    0.1553    2.0551 H        1 ZINC000103248035    0.0600
43     H43    -4.6613   -0.2206    0.8823 H        1 ZINC000103248035    0.0600
44     H44    -2.9754   -2.2683    2.3929 H        1 ZINC000103248035    0.1000
45     H45    -5.1944   -2.5167    0.3184 H        1 ZINC000103248035    0.0600
46     H46    -4.0973   -3.8501    0.7504 H        1 ZINC000103248035    0.0700
47     H47    -5.1879   -3.1620    1.9772 H        1 ZINC000103248035    0.0500
48     H48    -1.7563    0.1055    1.0951 H        1 ZINC000103248035    0.1300
49     H49    -0.8120   -1.3090    1.6202 H        1 ZINC000103248035    0.1500
50     H50     1.6236   -0.2833    0.9253 H        1 ZINC000103248035    0.1200
51     H51     1.6568    1.3655   -1.6432 H        1 ZINC000103248035    0.0700
52     H52     2.9534    1.3160   -0.4248 H        1 ZINC000103248035    0.0700
53     H53     2.5606   -0.1427   -1.3662 H        1 ZINC000103248035    0.0800
54     H54     0.0616    2.2020    0.0883 H        1 ZINC000103248035    0.0700
55     H55    -0.1711    1.2897    1.5988 H        1 ZINC000103248035    0.0600
56     H56     1.3582    2.1524    1.3067 H        1 ZINC000103248035    0.0700
57     H57    -1.3231   -4.1693   -3.8039 H        1 ZINC000103248035    0.1100
58     H58    -1.0882   -5.8943   -3.4331 H        1 ZINC000103248035    0.0400
59     H59    -2.6129   -5.0888   -2.9920 H        1 ZINC000103248035    0.0300
60     H60     0.9864   -4.1030   -0.9007 H        1 ZINC000103248035    0.0600
61     H61     1.0222   -5.3495   -2.1709 H        1 ZINC000103248035    0.0500
62     H62    -2.2879   -5.9751   -0.7629 H        1 ZINC000103248035    0.0600
63     H63    -0.6231   -6.5807   -0.9600 H        1 ZINC000103248035    0.0700
64     H64    -3.0476   -6.7057    1.2670 H        1 ZINC000103248035    0.1300
65     H65    -3.2107   -8.5618    2.8768 H        1 ZINC000103248035    0.1300
66     H66    -1.2361   -9.2353    4.1839 H        1 ZINC000103248035    0.1300
67     H67     1.0681   -6.2001    2.2640 H        1 ZINC000103248035    0.1300
68     H68     0.4035   -2.6831    1.4709 H        1 ZINC000103248035    0.1400
69     H69     1.1640   -1.6078    3.5511 H        1 ZINC000103248035    0.1400
70     H70    -2.3464   -2.9882    5.5458 H        1 ZINC000103248035    0.1300
71     H71    -3.1083   -4.0575    3.4629 H        1 ZINC000103248035    0.1400
@<TRIPOS>BOND
1     1     2     1
2     1     41    1
3     1     42    1
4     1     43    1
5     2     3     1
6     2     4     1
7     2     44    1
8     3     45    1
9     3     46    1
10    3     47    1
11    4     5     1
12    4     6     1
13    4     13    1
14    6     7     1
15    6     48    1
16    6     49    1
17    7     8     2
18    7     9     2
19    7     10    1
20    10    11    1
21    10    12    1
22    10    50    1
23    11    51    1
24    11    52    1
25    11    53    1
26    12    54    1
27    12    55    1
28    12    56    1
29    13    32    1
30    13    14    am
31    14    15    2
32    14    16    1
33    16    17    1
34    16    18    1
35    16    22    1
36    17    57    1
37    17    58    1
38    17    59    1
39    18    19    1
40    18    60    1
41    18    61    1
42    19    20    ar
43    19    21    ar
44    22    23    1
45    22    62    1
46    22    63    1
47    23    24    1
48    23    25    1
49    23    32    1
50    25    31    ar
51    25    26    ar
52    26    27    ar
53    26    64    1
54    27    28    ar
55    27    65    1
56    28    29    ar
57    28    66    1
58    29    30    1
59    29    31    ar
60    31    67    1
61    32    33    1
62    32    34    1
63    34    40    ar
64    34    35    ar
65    35    36    ar
66    35    68    1
67    36    37    ar
68    36    69    1
69    37    38    1
70    37    39    ar
71    39    40    ar
72    39    70    1
73    40    71    1
@<TRIPOS>SUBSTRUCTURE
1   ZINC000103248035 1     RESIDUE    1   A     ZIN   1
