@<TRIPOS>MOLECULE
ZINC000001573791
33    35    1     0     0
SMALL
USER_CHARGES
@<TRIPOS>ATOM
1      O1      0.0021   -0.0041    0.0020 O.2      1 ZINC000001573791   -0.4200
2      C2     -0.0144    1.2096    0.0087 C.2      1 ZINC000001573791    0.3700
3      C3     -1.2726    1.9636    0.0310 C.ar     1 ZINC000001573791   -0.2900
4      C4     -2.4895    1.3183    0.3004 C.ar     1 ZINC000001573791    0.2200
5      O5     -2.5147   -0.0132    0.5563 O.3      1 ZINC000001573791   -0.4800
6      C6     -3.6634    2.0510    0.3034 C.ar     1 ZINC000001573791   -0.2200
7      C7     -3.6328    3.4153    0.0435 C.ar     1 ZINC000001573791    0.2000
8      O8     -4.7890    4.1252    0.0456 O.3      1 ZINC000001573791   -0.4900
9      C9     -2.4305    4.0604   -0.2181 C.ar     1 ZINC000001573791   -0.2000
10     C10    -1.2450    3.3475   -0.2240 C.ar     1 ZINC000001573791    0.2200
11     O11    -0.0749    3.9835   -0.4673 O.3      1 ZINC000001573791   -0.2900
12     C12     1.0337    3.2198   -0.9420 C.3      1 ZINC000001573791    0.1500
13     H13     0.8218    2.8577   -1.9481 H        1 ZINC000001573791    0.1000
14     C14     2.2666    4.0860   -0.9685 C.ar     1 ZINC000001573791   -0.1000
15     C15     2.5077    4.9751    0.0626 C.ar     1 ZINC000001573791   -0.0500
16     C16     3.6371    5.7702    0.0407 C.ar     1 ZINC000001573791   -0.1500
17     C17     4.5301    5.6757   -1.0168 C.ar     1 ZINC000001573791    0.1200
18     O18     5.6422    6.4566   -1.0405 O.3      1 ZINC000001573791   -0.5000
19     C19     4.2862    4.7825   -2.0499 C.ar     1 ZINC000001573791   -0.1500
20     C20     3.1577    3.9862   -2.0209 C.ar     1 ZINC000001573791   -0.0900
21     C21     1.2662    2.0251    0.0008 C.3      1 ZINC000001573791    0.0400
22     H22     2.0897    1.4146   -0.3697 H        1 ZINC000001573791    0.1000
23     O23     1.5631    2.4948    1.3174 O.3      1 ZINC000001573791   -0.5300
24     H24    -2.4180   -0.2357    1.4923 H        1 ZINC000001573791    0.4000
25     H25    -4.6042    1.5616    0.5077 H        1 ZINC000001573791    0.1500
26     H26    -5.0231    4.4931    0.9087 H        1 ZINC000001573791    0.4000
27     H27    -2.4213    5.1218   -0.4175 H        1 ZINC000001573791    0.1500
28     H28     1.8122    5.0483    0.8856 H        1 ZINC000001573791    0.1400
29     H29     3.8246    6.4651    0.8460 H        1 ZINC000001573791    0.1300
30     H30     6.4122    6.0573   -0.6130 H        1 ZINC000001573791    0.3900
31     H31     4.9797    4.7074   -2.8744 H        1 ZINC000001573791    0.1300
32     H32     2.9675    3.2904   -2.8248 H        1 ZINC000001573791    0.1300
33     H33     1.7202    1.7898    1.9604 H        1 ZINC000001573791    0.3900
@<TRIPOS>BOND
1     1     2     2
2     2     21    1
3     2     3     1
4     3     10    ar
5     3     4     ar
6     4     5     1
7     4     6     ar
8     5     24    1
9     6     7     ar
10    6     25    1
11    7     8     1
12    7     9     ar
13    8     26    1
14    9     10    ar
15    9     27    1
16    10    11    1
17    11    12    1
18    12    13    1
19    12    14    1
20    12    21    1
21    14    20    ar
22    14    15    ar
23    15    16    ar
24    15    28    1
25    16    17    ar
26    16    29    1
27    17    18    1
28    17    19    ar
29    18    30    1
30    19    20    ar
31    19    31    1
32    20    32    1
33    21    22    1
34    21    23    1
35    23    33    1
@<TRIPOS>SUBSTRUCTURE
1   ZINC000001573791 1     RESIDUE    1   A     ZIN   1
