@<TRIPOS>MOLECULE
ZINC000004793192
32    33    1     0     0
SMALL
USER_CHARGES
@<TRIPOS>ATOM
1      C1     -0.0187    1.5258    0.0104 C.3      1 ZINC000004793192   -0.1700
2      C2      0.0021   -0.0041    0.0020 C.3      1 ZINC000004793192    0.1000
3      N3      0.6878   -0.4765   -1.2033 N.pl3    1 ZINC000004793192   -0.5100
4      C4     -0.0115   -0.7112   -2.3716 C.ar     1 ZINC000004793192    0.1700
5      C5     -1.3881   -0.5522   -2.5953 C.ar     1 ZINC000004793192   -0.1700
6      C6     -1.9384   -0.8309   -3.8291 C.ar     1 ZINC000004793192    0.1700
7      O7     -3.2746   -0.6692   -4.0217 O.3      1 ZINC000004793192   -0.3100
8      C8     -3.7843   -0.9743   -5.3214 C.3      1 ZINC000004793192    0.0300
9      C9     -1.1419   -1.2744   -4.8768 C.ar     1 ZINC000004793192   -0.2100
10     C10     0.2146   -1.4364   -4.6757 C.ar     1 ZINC000004793192    0.0000
11     C11     0.7695   -1.1579   -3.4384 C.ar     1 ZINC000004793192   -0.2400
12     S12     2.4302   -1.2498   -2.8355 S.3      1 ZINC000004793192    0.1600
13     C13     2.0267   -0.6900   -1.2042 C.2      1 ZINC000004793192    0.2100
14     C14     2.9024   -0.5123   -0.1407 C.2      1 ZINC000004793192   -0.3500
15     C15     4.2510   -0.7832   -0.3015 C.2      1 ZINC000004793192    0.3800
16     C16     5.2011   -0.5904    0.8523 C.3      1 ZINC000004793192   -0.1900
17     O17     4.6692   -1.1772   -1.3754 O.2      1 ZINC000004793192   -0.5000
18     H18     1.0039    1.9031    0.0027 H        1 ZINC000004793192    0.0700
19     H19    -0.5459    1.8868   -0.8726 H        1 ZINC000004793192    0.0600
20     H20    -0.5289    1.8773    0.9072 H        1 ZINC000004793192    0.0800
21     H21     0.5293   -0.3651    0.8851 H        1 ZINC000004793192    0.1000
22     H22    -1.0205   -0.3814    0.0098 H        1 ZINC000004793192    0.0900
23     H23    -2.0235   -0.2082   -1.7925 H        1 ZINC000004793192    0.1400
24     H24    -3.5788   -2.0186   -5.5563 H        1 ZINC000004793192    0.0600
25     H25    -4.8606   -0.8029   -5.3390 H        1 ZINC000004793192    0.1000
26     H26    -3.3023   -0.3340   -6.0602 H        1 ZINC000004793192    0.0600
27     H27    -1.5796   -1.4911   -5.8401 H        1 ZINC000004793192    0.1400
28     H28     0.8429   -1.7808   -5.4838 H        1 ZINC000004793192    0.1400
29     H29     2.5316   -0.1629    0.8116 H        1 ZINC000004793192    0.1400
30     H30     5.2701   -1.5155    1.4246 H        1 ZINC000004793192    0.0900
31     H31     6.1870   -0.3249    0.4706 H        1 ZINC000004793192    0.0800
32     H32     4.8335    0.2086    1.4961 H        1 ZINC000004793192    0.0800
@<TRIPOS>BOND
1     1     2     1
2     1     18    1
3     1     19    1
4     1     20    1
5     2     3     1
6     2     21    1
7     2     22    1
8     3     13    1
9     3     4     1
10    4     11    ar
11    4     5     ar
12    5     6     ar
13    5     23    1
14    6     7     1
15    6     9     ar
16    7     8     1
17    8     24    1
18    8     25    1
19    8     26    1
20    9     10    ar
21    9     27    1
22    10    11    ar
23    10    28    1
24    11    12    1
25    12    13    1
26    13    14    2
27    14    15    1
28    14    29    1
29    15    16    1
30    15    17    2
31    16    30    1
32    16    31    1
33    16    32    1
@<TRIPOS>SUBSTRUCTURE
1   ZINC000004793192 1     RESIDUE    1   A     ZIN   1
