@<TRIPOS>MOLECULE
ZINC000000402623
29    31    1     0     0
SMALL
USER_CHARGES
@<TRIPOS>ATOM
1      C1     -0.0184    1.5028    0.0103 C.3      1 ZINC000000402623   -0.1400
2      C2      0.0021   -0.0041    0.0020 C.ar     1 ZINC000000402623    0.0000
3      C3     -0.1285   -0.6326   -1.2241 C.ar     1 ZINC000000402623   -0.1700
4      C4     -0.0808   -2.0164   -1.3162 C.ar     1 ZINC000000402623    0.1700
5      O5     -0.2364   -2.6251   -2.5200 O.3      1 ZINC000000402623   -0.4900
6      C6      0.1383   -2.7742   -0.1806 C.ar     1 ZINC000000402623   -0.1700
7      C7      0.2685   -2.1579    1.0565 C.ar     1 ZINC000000402623    0.1600
8      C8      0.1252   -0.7601    1.1613 C.ar     1 ZINC000000402623   -0.1300
9      C9      0.0730   -0.1913    2.5207 C.ar     1 ZINC000000402623    0.0500
10     C10    -0.5649    0.9833    2.8706 C.ar     1 ZINC000000402623   -0.1600
11     C11    -0.4051    1.5149    4.1455 C.ar     1 ZINC000000402623    0.1800
12     O12    -1.0213    2.6805    4.4678 O.3      1 ZINC000000402623   -0.4900
13     C13     0.3684    0.8599    5.0949 C.ar     1 ZINC000000402623   -0.1900
14     C14     0.9271   -0.3731    4.7997 C.ar     1 ZINC000000402623    0.2200
15     O15     1.7112   -1.0002    5.7113 O.3      1 ZINC000000402623   -0.4700
16     C16     0.6609   -0.9606    3.5607 C.ar     1 ZINC000000402623   -0.2300
17     C17     0.8943   -2.3864    3.3116 C.2      1 ZINC000000402623    0.5300
18     O18     1.3811   -3.0922    4.1856 O.2      1 ZINC000000402623   -0.4400
19     O19     0.5651   -2.9226    2.1263 O.3      1 ZINC000000402623   -0.2700
20     H20     1.0042    1.8800    0.0207 H        1 ZINC000000402623    0.0800
21     H21    -0.5298    1.8642   -0.8818 H        1 ZINC000000402623    0.0800
22     H22    -0.5443    1.8542    0.8980 H        1 ZINC000000402623    0.0800
23     H23    -0.2673   -0.0346   -2.1131 H        1 ZINC000000402623    0.1400
24     H24     0.5911   -2.7625   -3.0012 H        1 ZINC000000402623    0.4000
25     H25     0.2076   -3.8501   -0.2528 H        1 ZINC000000402623    0.1500
26     H26    -1.2422    1.4781    2.1900 H        1 ZINC000000402623    0.1500
27     H27    -1.9076    2.5676    4.8378 H        1 ZINC000000402623    0.4000
28     H28     0.5347    1.3100    6.0611 H        1 ZINC000000402623    0.1500
29     H29     1.2272   -1.5847    6.3107 H        1 ZINC000000402623    0.4000
@<TRIPOS>BOND
1     1     2     1
2     1     20    1
3     1     21    1
4     1     22    1
5     2     8     ar
6     2     3     ar
7     3     4     ar
8     3     23    1
9     4     5     1
10    4     6     ar
11    5     24    1
12    6     7     ar
13    6     25    1
14    7     19    1
15    7     8     ar
16    8     9     1
17    9     16    ar
18    9     10    ar
19    10    11    ar
20    10    26    1
21    11    12    1
22    11    13    ar
23    12    27    1
24    13    14    ar
25    13    28    1
26    14    15    1
27    14    16    ar
28    15    29    1
29    16    17    1
30    17    18    2
31    17    19    1
@<TRIPOS>SUBSTRUCTURE
1   ZINC000000402623 1     RESIDUE    1   A     ZIN   1
