@<TRIPOS>MOLECULE
ZINC000014958271
56    59    1     0     0
SMALL
USER_CHARGES
@<TRIPOS>ATOM
1      N1      0.0175   -1.1399   -0.0042 N.1      1 ZINC000014958271   -0.3800
2      C2      0.0021   -0.0041    0.0020 C.1      1 ZINC000014958271    0.2800
3      C3     -0.0173    1.4278    0.0099 C.ar     1 ZINC000014958271    0.0800
4      N4     -1.1790    2.0788    0.0300 N.ar     1 ZINC000014958271   -0.3400
5      C5     -1.1961    3.3954    0.0332 C.ar     1 ZINC000014958271    0.0000
6      C6      0.0018    4.1128    0.0087 C.ar     1 ZINC000014958271    0.4000
7      N7      1.1619    3.4741   -0.0085 N.ar     1 ZINC000014958271   -0.4800
8      C8      1.1892    2.1477    0.0022 C.ar     1 ZINC000014958271    0.3600
9      O9      2.3689    1.4837   -0.0038 O.3      1 ZINC000014958271   -0.2900
10     C10     3.4650    2.0859    0.6875 C.3      1 ZINC000014958271    0.0600
11     C11     4.5509    2.4673   -0.3211 C.3      1 ZINC000014958271   -0.1300
12     C12     5.5253    3.4523    0.3274 C.3      1 ZINC000014958271   -0.1100
13     C13     5.4756    4.7846   -0.4227 C.3      1 ZINC000014958271   -0.1300
14     C14     4.8432    5.8514    0.4739 C.3      1 ZINC000014958271   -0.0200
15     O15     3.6179    6.3006   -0.1131 O.3      1 ZINC000014958271   -0.1700
16     C16     3.5235    7.6315   -0.3836 C.ar     1 ZINC000014958271    0.1200
17     C17     4.6717    8.3700   -0.6188 C.ar     1 ZINC000014958271   -0.2400
18     C18     4.5783    9.7290   -0.8851 C.ar     1 ZINC000014958271    0.2500
19     N19     5.7376   10.4758   -1.1249 N.pl3    1 ZINC000014958271   -0.7400
20     C20     7.0488    9.8230   -1.0948 C.3      1 ZINC000014958271    0.1700
21     C21     8.1230   10.8401   -1.3824 C.ar     1 ZINC000014958271   -0.0700
22     C22     8.5350   11.0888   -2.6827 C.ar     1 ZINC000014958271   -0.1500
23     C23     9.5229   12.0287   -2.9080 C.ar     1 ZINC000014958271    0.1000
24     N24    10.0718   12.6843   -1.9041 N.ar     1 ZINC000014958271   -0.4800
25     C25     9.7049   12.4736   -0.6551 C.ar     1 ZINC000014958271    0.1000
26     C26     8.7189   11.5534   -0.3535 C.ar     1 ZINC000014958271   -0.1500
27     C27     3.3344   10.3490   -0.9142 C.ar     1 ZINC000014958271   -0.1200
28     Cl28    3.2201   12.0507   -1.2381 Cl       1 ZINC000014958271   -0.0700
29     C29     2.1895    9.6112   -0.6851 C.ar     1 ZINC000014958271   -0.0600
30     C30     2.2775    8.2516   -0.4267 C.ar     1 ZINC000014958271    0.0800
31     N31     1.1005    7.5148   -0.2132 N.am     1 ZINC000014958271   -0.6700
32     C32     1.1545    6.1651   -0.1143 C.2      1 ZINC000014958271    0.6700
33     O33     2.2120    5.5651   -0.1245 O.2      1 ZINC000014958271   -0.3800
34     N34    -0.0419    5.5121    0.0053 N.am     1 ZINC000014958271   -0.6600
35     H35    -2.1389    3.9218    0.0546 H        1 ZINC000014958271    0.1900
36     H36     3.1205    2.9802    1.2067 H        1 ZINC000014958271    0.0900
37     H37     3.8719    1.3789    1.4104 H        1 ZINC000014958271    0.0900
38     H38     5.0908    1.5721   -0.6297 H        1 ZINC000014958271    0.0700
39     H39     4.0903    2.9324   -1.1926 H        1 ZINC000014958271    0.0800
40     H40     5.2434    3.6104    1.3684 H        1 ZINC000014958271    0.0700
41     H41     6.5361    3.0469    0.2819 H        1 ZINC000014958271    0.0600
42     H42     6.4875    5.0885   -0.6908 H        1 ZINC000014958271    0.0600
43     H43     4.8788    4.6700   -1.3275 H        1 ZINC000014958271    0.0800
44     H44     4.6410    5.4267    1.4571 H        1 ZINC000014958271    0.0700
45     H45     5.5279    6.6935    0.5752 H        1 ZINC000014958271    0.0600
46     H46     5.6384    7.8890   -0.5946 H        1 ZINC000014958271    0.1400
47     H47     5.6729   11.4256   -1.3110 H        1 ZINC000014958271    0.4100
48     H48     7.2153    9.3875   -0.1095 H        1 ZINC000014958271    0.0700
49     H49     7.0809    9.0373   -1.8495 H        1 ZINC000014958271    0.0800
50     H50     8.0898   10.5546   -3.5090 H        1 ZINC000014958271    0.1400
51     H51     9.8494   12.2283   -3.9179 H        1 ZINC000014958271    0.1600
52     H52    10.1776   13.0296    0.1411 H        1 ZINC000014958271    0.1600
53     H53     8.4225   11.3855    0.6714 H        1 ZINC000014958271    0.1400
54     H54     1.2237   10.0942   -0.7072 H        1 ZINC000014958271    0.1400
55     H55     0.2489    7.9729   -0.1363 H        1 ZINC000014958271    0.4100
56     H56    -0.8797    5.9954    0.0791 H        1 ZINC000014958271    0.4300
@<TRIPOS>BOND
1     1     2     3
2     2     3     1
3     3     8     ar
4     3     4     ar
5     4     5     ar
6     5     6     ar
7     5     35    1
8     6     34    1
9     6     7     ar
10    7     8     ar
11    8     9     1
12    9     10    1
13    10    11    1
14    10    36    1
15    10    37    1
16    11    12    1
17    11    38    1
18    11    39    1
19    12    13    1
20    12    40    1
21    12    41    1
22    13    14    1
23    13    42    1
24    13    43    1
25    14    15    1
26    14    44    1
27    14    45    1
28    15    16    1
29    16    30    ar
30    16    17    ar
31    17    18    ar
32    17    46    1
33    18    19    1
34    18    27    ar
35    19    20    1
36    19    47    1
37    20    21    1
38    20    48    1
39    20    49    1
40    21    26    ar
41    21    22    ar
42    22    23    ar
43    22    50    1
44    23    24    ar
45    23    51    1
46    24    25    ar
47    25    26    ar
48    25    52    1
49    26    53    1
50    27    28    1
51    27    29    ar
52    29    30    ar
53    29    54    1
54    30    31    1
55    31    32    am
56    31    55    1
57    32    33    2
58    32    34    am
59    34    56    1
@<TRIPOS>SUBSTRUCTURE
1   ZINC000014958271 1     RESIDUE    1   A     ZIN   1
