@<TRIPOS>MOLECULE
ZINC000071318831
47    51    1     0     0
SMALL
USER_CHARGES
@<TRIPOS>ATOM
1      N1      0.1403    1.3853   -1.5937 N.pl3    1 ZINC000071318831   -0.8500
2      C2      0.1597   -0.0032   -1.5510 C.ar     1 ZINC000071318831    0.4100
3      C3     -0.9685   -0.6929   -1.1160 C.ar     1 ZINC000071318831   -0.2400
4      C4     -0.9416   -2.0731   -1.0769 C.ar     1 ZINC000071318831   -0.0100
5      C5      0.2281   -2.7277   -1.4794 C.ar     1 ZINC000071318831   -0.1700
6      C6      0.3069   -4.2086   -1.4561 C.ar     1 ZINC000071318831   -0.0200
7      C7     -0.8158   -4.9727   -1.8041 C.ar     1 ZINC000071318831   -0.0800
8      C8     -0.7674   -6.3318   -1.7896 C.ar     1 ZINC000071318831   -0.0900
9      C9      0.4166   -6.9928   -1.4232 C.ar     1 ZINC000071318831    0.1600
10     N10     0.4705   -8.3333   -1.4069 N.ar     1 ZINC000071318831   -0.4900
11     C11     1.5531   -8.9857   -1.0723 C.ar     1 ZINC000071318831    0.2000
12     C12     2.7312   -8.3062   -0.7077 C.ar     1 ZINC000071318831   -0.1900
13     C13     2.7426   -6.9030   -0.7037 C.ar     1 ZINC000071318831    0.2400
14     C14     1.5553   -6.2273   -1.0707 C.ar     1 ZINC000071318831   -0.1200
15     C15     1.4912   -4.8306   -1.0959 C.ar     1 ZINC000071318831   -0.1300
16     N16     3.8786   -6.2257   -0.3530 N.am     1 ZINC000071318831   -0.4600
17     C17     3.8814   -4.8260   -0.3511 C.ar     1 ZINC000071318831    0.1200
18     C18     3.4784   -4.1309    0.7815 C.ar     1 ZINC000071318831   -0.0700
19     C19     3.4822   -2.7496    0.7802 C.ar     1 ZINC000071318831   -0.1000
20     C20     3.8863   -2.0590   -0.3474 C.ar     1 ZINC000071318831   -0.0500
21     C21     4.2883   -2.7483   -1.4771 C.ar     1 ZINC000071318831   -0.1800
22     C22     4.7285   -1.9916   -2.7038 C.3      1 ZINC000071318831    0.5100
23     F23     4.6443   -0.6168   -2.4587 F        1 ZINC000071318831   -0.1600
24     F24     6.0506   -2.3303   -3.0113 F        1 ZINC000071318831   -0.1700
25     F25     3.8992   -2.3251   -3.7800 F        1 ZINC000071318831   -0.1700
26     C26     4.2927   -4.1292   -1.4801 C.ar     1 ZINC000071318831   -0.0600
27     C27     4.9943   -6.8979   -0.0091 C.2      1 ZINC000071318831    0.5300
28     O28     5.9980   -6.2791    0.3007 O.2      1 ZINC000071318831   -0.5100
29     C29     5.0164   -8.3075   -0.0023 C.2      1 ZINC000071318831   -0.2200
30     C30     3.9067   -9.0101   -0.3449 C.2      1 ZINC000071318831    0.0000
31     C31     1.3166   -1.9696   -1.9024 C.ar     1 ZINC000071318831    0.1600
32     N32     1.2496   -0.6538   -1.9300 N.ar     1 ZINC000071318831   -0.5300
33     H33     0.9216    1.8721   -1.8996 H        1 ZINC000071318831    0.4100
34     H34    -0.6559    1.8678   -1.3214 H        1 ZINC000071318831    0.4100
35     H35    -1.8544   -0.1549   -0.8123 H        1 ZINC000071318831    0.1400
36     H36    -1.8023   -2.6337   -0.7434 H        1 ZINC000071318831    0.1400
37     H37    -1.7317   -4.4754   -2.0873 H        1 ZINC000071318831    0.1400
38     H38    -1.6420   -6.9046   -2.0604 H        1 ZINC000071318831    0.1500
39     H39     1.5434  -10.0657   -1.0753 H        1 ZINC000071318831    0.1800
40     H40     2.3571   -4.2414   -0.8323 H        1 ZINC000071318831    0.1600
41     H41     3.1619   -4.6697    1.6624 H        1 ZINC000071318831    0.1400
42     H42     3.1689   -2.2085    1.6607 H        1 ZINC000071318831    0.1500
43     H43     3.8878   -0.9790   -0.3462 H        1 ZINC000071318831    0.1500
44     H44     4.6067   -4.6669   -2.3626 H        1 ZINC000071318831    0.1400
45     H45     5.9195   -8.8302    0.2764 H        1 ZINC000071318831    0.1600
46     H46     3.9192  -10.0900   -0.3407 H        1 ZINC000071318831    0.1600
47     H47     2.2240   -2.4652   -2.2147 H        1 ZINC000071318831    0.1500
@<TRIPOS>BOND
1     1     2     1
2     1     33    1
3     1     34    1
4     2     32    ar
5     2     3     ar
6     3     4     ar
7     3     35    1
8     4     5     ar
9     4     36    1
10    5     6     1
11    5     31    ar
12    6     15    ar
13    6     7     ar
14    7     8     ar
15    7     37    1
16    8     9     ar
17    8     38    1
18    9     14    ar
19    9     10    ar
20    10    11    ar
21    11    12    ar
22    11    39    1
23    12    30    1
24    12    13    ar
25    13    14    ar
26    13    16    1
27    14    15    ar
28    15    40    1
29    16    17    1
30    16    27    am
31    17    26    ar
32    17    18    ar
33    18    19    ar
34    18    41    1
35    19    20    ar
36    19    42    1
37    20    21    ar
38    20    43    1
39    21    22    1
40    21    26    ar
41    22    23    1
42    22    24    1
43    22    25    1
44    26    44    1
45    27    28    2
46    27    29    1
47    29    30    2
48    29    45    1
49    30    46    1
50    31    32    ar
51    31    47    1
@<TRIPOS>SUBSTRUCTURE
1   ZINC000071318831 1     RESIDUE    1   A     ZIN   1
