@<TRIPOS>MOLECULE
ZINC000001720645
49    52    1     0     0
SMALL
USER_CHARGES
@<TRIPOS>ATOM
1      C1     -0.2487    1.2560    0.6318 C.3      1 ZINC000001720645    0.0300
2      O2     -0.1789   -0.1626    0.4745 O.3      1 ZINC000001720645   -0.3100
3      C3     -1.3590   -0.8334    0.3922 C.ar     1 ZINC000001720645    0.1100
4      C4     -1.3627   -2.2087    0.2450 C.ar     1 ZINC000001720645   -0.1000
5      C5     -2.5737   -2.8913    0.1616 C.ar     1 ZINC000001720645   -0.0500
6      C6     -3.7839   -2.1876    0.2266 C.ar     1 ZINC000001720645    0.1100
7      C7     -3.7625   -0.8044    0.3747 C.ar     1 ZINC000001720645   -0.1000
8      C8     -2.5598   -0.1365    0.4619 C.ar     1 ZINC000001720645   -0.1700
9      N9     -4.8280   -3.0948    0.1205 N.pl3    1 ZINC000001720645   -0.5200
10     C10    -6.2496   -2.7417    0.1460 C.3      1 ZINC000001720645    0.1200
11     C11    -6.7334   -2.4704   -1.2799 C.3      1 ZINC000001720645   -0.1800
12     C12    -8.2180   -2.1016   -1.2532 C.3      1 ZINC000001720645   -0.0100
13     N13    -8.6825   -1.8411   -2.6223 N.4      1 ZINC000001720645   -0.6400
14     H14    -8.5515   -2.6682   -3.1850 H        1 ZINC000001720645    0.4400
15     H15    -9.6616   -1.5979   -2.6047 H        1 ZINC000001720645    0.4400
16     H16    -8.1535   -1.0781   -3.0175 H        1 ZINC000001720645    0.4400
17     C17    -4.3347   -4.3818   -0.0129 C.ar     1 ZINC000001720645    0.1900
18     C18    -2.9231   -4.3178    0.0061 C.ar     1 ZINC000001720645   -0.1000
19     C19    -2.1604   -5.4650   -0.1101 C.ar     1 ZINC000001720645    0.0200
20     C20    -0.6559   -5.3815   -0.0877 C.3      1 ZINC000001720645   -0.1300
21     C21    -2.7956   -6.7048   -0.2481 C.ar     1 ZINC000001720645   -0.1400
22     C22    -2.0671   -7.9009   -0.3693 C.ar     1 ZINC000001720645    0.1700
23     N23    -2.7003   -9.0429   -0.4965 N.ar     1 ZINC000001720645   -0.4900
24     C24    -4.0241   -9.1322   -0.5175 C.ar     1 ZINC000001720645    0.0900
25     C25    -4.8209   -8.0350   -0.4075 C.ar     1 ZINC000001720645   -0.1800
26     C26    -4.2160   -6.7698   -0.2674 C.ar     1 ZINC000001720645    0.0200
27     C27    -4.9722   -5.6001   -0.1488 C.ar     1 ZINC000001720645   -0.1400
28     C28    -6.4775   -5.6677   -0.1686 C.3      1 ZINC000001720645   -0.1100
29     H29     0.7600    1.6659    0.6840 H        1 ZINC000001720645    0.1100
30     H30    -0.7738    1.6905   -0.2188 H        1 ZINC000001720645    0.0600
31     H31    -0.7854    1.4938    1.5503 H        1 ZINC000001720645    0.0600
32     H32    -0.4301   -2.7510    0.1946 H        1 ZINC000001720645    0.1400
33     H33    -4.6900   -0.2534    0.4258 H        1 ZINC000001720645    0.1200
34     H34    -2.5503    0.9373    0.5768 H        1 ZINC000001720645    0.1400
35     H35    -6.8211   -3.5659    0.5729 H        1 ZINC000001720645    0.1100
36     H36    -6.3911   -1.8481    0.7540 H        1 ZINC000001720645    0.1000
37     H37    -6.1619   -1.6462   -1.7068 H        1 ZINC000001720645    0.1000
38     H38    -6.5918   -3.3639   -1.8878 H        1 ZINC000001720645    0.1000
39     H39    -8.7895   -2.9258   -0.8263 H        1 ZINC000001720645    0.1400
40     H40    -8.3596   -1.2080   -0.6453 H        1 ZINC000001720645    0.1400
41     H41    -0.3023   -5.4709    0.9395 H        1 ZINC000001720645    0.0900
42     H42    -0.2382   -6.1902   -0.6874 H        1 ZINC000001720645    0.0800
43     H43    -0.3391   -4.4231   -0.4990 H        1 ZINC000001720645    0.0800
44     H44    -0.9873   -7.8797   -0.3580 H        1 ZINC000001720645    0.1700
45     H45    -4.4824  -10.1042   -0.6254 H        1 ZINC000001720645    0.1600
46     H46    -5.8964   -8.1316   -0.4275 H        1 ZINC000001720645    0.1400
47     H47    -6.8539   -5.6867    0.8542 H        1 ZINC000001720645    0.0700
48     H48    -6.8737   -4.7935   -0.6853 H        1 ZINC000001720645    0.0600
49     H49    -6.7938   -6.5717   -0.6890 H        1 ZINC000001720645    0.0800
@<TRIPOS>BOND
1     1     2     1
2     1     29    1
3     1     30    1
4     1     31    1
5     2     3     1
6     3     8     ar
7     3     4     ar
8     4     5     ar
9     4     32    1
10    5     18    1
11    5     6     ar
12    6     7     ar
13    6     9     1
14    7     8     ar
15    7     33    1
16    8     34    1
17    9     10    1
18    9     17    1
19    10    11    1
20    10    35    1
21    10    36    1
22    11    12    1
23    11    37    1
24    11    38    1
25    12    13    1
26    12    39    1
27    12    40    1
28    13    14    1
29    13    15    1
30    13    16    1
31    17    27    ar
32    17    18    ar
33    18    19    ar
34    19    20    1
35    19    21    ar
36    20    41    1
37    20    42    1
38    20    43    1
39    21    26    ar
40    21    22    ar
41    22    23    ar
42    22    44    1
43    23    24    ar
44    24    25    ar
45    24    45    1
46    25    26    ar
47    25    46    1
48    26    27    ar
49    27    28    1
50    28    47    1
51    28    48    1
52    28    49    1
@<TRIPOS>SUBSTRUCTURE
1   ZINC000001720645 1     RESIDUE    1   A     ZIN   1
