@<TRIPOS>MOLECULE
ZINC000001532185
53    55    1     0     0
SMALL
USER_CHARGES
@<TRIPOS>ATOM
1      C1      1.5694    3.1332    0.6101 C.3      1 ZINC000001532185   -0.1800
2      C2      1.1570    1.6936    0.9238 C.3      1 ZINC000001532185    0.0300
3      H3      1.8068    1.2906    1.7006 H        1 ZINC000001532185    0.1400
4      C4     -0.2933    1.6731    1.4106 C.3      1 ZINC000001532185   -0.1000
5      C5     -0.6608    0.2748    1.8357 C.ar     1 ZINC000001532185   -0.1300
6      C6     -1.1942   -0.6094    0.9167 C.ar     1 ZINC000001532185   -0.1400
7      C7     -1.5313   -1.8920    1.3066 C.ar     1 ZINC000001532185   -0.1100
8      C8     -1.3345   -2.2907    2.6155 C.ar     1 ZINC000001532185   -0.1000
9      C9     -0.8003   -1.4069    3.5344 C.ar     1 ZINC000001532185   -0.1100
10     C10    -0.4592   -0.1256    3.1434 C.ar     1 ZINC000001532185   -0.1100
11     N11     1.2779    0.8741   -0.2894 N.4      1 ZINC000001532185   -0.5100
12     H12     0.9287   -0.0543   -0.1044 H        1 ZINC000001532185    0.4300
13     H13     0.7406    1.2935   -1.0335 H        1 ZINC000001532185    0.4200
14     C14     2.6894    0.7958   -0.6888 C.3      1 ZINC000001532185   -0.0100
15     C15     2.8153   -0.0577   -1.9524 C.3      1 ZINC000001532185   -0.1400
16     C16     4.2854   -0.1392   -2.3683 C.3      1 ZINC000001532185    0.0100
17     C17     5.0667   -0.8754   -1.3105 C.ar     1 ZINC000001532185   -0.0900
18     C18     6.2044   -0.3060   -0.7698 C.ar     1 ZINC000001532185   -0.1100
19     C19     6.9210   -0.9812    0.2004 C.ar     1 ZINC000001532185   -0.1100
20     C20     6.4996   -2.2256    0.6303 C.ar     1 ZINC000001532185   -0.1100
21     C21     5.3614   -2.7946    0.0903 C.ar     1 ZINC000001532185   -0.1100
22     C22     4.6424   -2.1175   -0.8769 C.ar     1 ZINC000001532185   -0.1200
23     C23     4.3967   -0.8755   -3.6785 C.ar     1 ZINC000001532185   -0.0900
24     C24     3.7976   -2.1121   -3.8295 C.ar     1 ZINC000001532185   -0.1200
25     C25     3.8997   -2.7874   -5.0313 C.ar     1 ZINC000001532185   -0.1200
26     C26     4.6004   -2.2260   -6.0823 C.ar     1 ZINC000001532185   -0.1100
27     C27     5.1987   -0.9890   -5.9316 C.ar     1 ZINC000001532185   -0.1100
28     C28     5.0930   -0.3117   -4.7312 C.ar     1 ZINC000001532185   -0.1100
29     H29     2.6026    3.1477    0.2632 H        1 ZINC000001532185    0.0800
30     H30     0.9196    3.5361   -0.1668 H        1 ZINC000001532185    0.0800
31     H31     1.4797    3.7412    1.5103 H        1 ZINC000001532185    0.1100
32     H32    -0.4019    2.3507    2.2575 H        1 ZINC000001532185    0.1200
33     H33    -0.9522    1.9923    0.6031 H        1 ZINC000001532185    0.1000
34     H34    -1.3479   -0.2979   -0.1060 H        1 ZINC000001532185    0.1200
35     H35    -1.9487   -2.5825    0.5887 H        1 ZINC000001532185    0.1300
36     H36    -1.5985   -3.2926    2.9203 H        1 ZINC000001532185    0.1300
37     H37    -0.6469   -1.7182    4.5571 H        1 ZINC000001532185    0.1300
38     H38    -0.0418    0.5650    3.8613 H        1 ZINC000001532185    0.1300
39     H39     3.0667    1.7987   -0.8887 H        1 ZINC000001532185    0.1400
40     H40     3.2698    0.3428    0.1150 H        1 ZINC000001532185    0.1300
41     H41     2.4381   -1.0606   -1.7525 H        1 ZINC000001532185    0.0900
42     H42     2.2349    0.3954   -2.7561 H        1 ZINC000001532185    0.1000
43     H43     4.6873    0.8676   -2.4821 H        1 ZINC000001532185    0.1000
44     H44     6.5335    0.6663   -1.1057 H        1 ZINC000001532185    0.1200
45     H45     7.8102   -0.5366    0.6224 H        1 ZINC000001532185    0.1300
46     H46     7.0599   -2.7534    1.3879 H        1 ZINC000001532185    0.1300
47     H47     5.0324   -3.7670    0.4259 H        1 ZINC000001532185    0.1200
48     H48     3.7532   -2.5620   -1.2988 H        1 ZINC000001532185    0.1200
49     H49     3.2501   -2.5507   -3.0083 H        1 ZINC000001532185    0.1200
50     H50     3.4322   -3.7539   -5.1490 H        1 ZINC000001532185    0.1300
51     H51     4.6807   -2.7539   -7.0210 H        1 ZINC000001532185    0.1300
52     H52     5.7465   -0.5505   -6.7526 H        1 ZINC000001532185    0.1300
53     H53     5.5605    0.6548   -4.6135 H        1 ZINC000001532185    0.1200
@<TRIPOS>BOND
1     1     2     1
2     1     29    1
3     1     30    1
4     1     31    1
5     2     3     1
6     2     4     1
7     2     11    1
8     4     5     1
9     4     32    1
10    4     33    1
11    5     10    ar
12    5     6     ar
13    6     7     ar
14    6     34    1
15    7     8     ar
16    7     35    1
17    8     9     ar
18    8     36    1
19    9     10    ar
20    9     37    1
21    10    38    1
22    11    12    1
23    11    13    1
24    11    14    1
25    14    15    1
26    14    39    1
27    14    40    1
28    15    16    1
29    15    41    1
30    15    42    1
31    16    17    1
32    16    23    1
33    16    43    1
34    17    22    ar
35    17    18    ar
36    18    19    ar
37    18    44    1
38    19    20    ar
39    19    45    1
40    20    21    ar
41    20    46    1
42    21    22    ar
43    21    47    1
44    22    48    1
45    23    28    ar
46    23    24    ar
47    24    25    ar
48    24    49    1
49    25    26    ar
50    25    50    1
51    26    27    ar
52    26    51    1
53    27    28    ar
54    27    52    1
55    28    53    1
@<TRIPOS>SUBSTRUCTURE
1   ZINC000001532185 1     RESIDUE    1   A     ZIN   1
