@<TRIPOS>MOLECULE
ZINC000003973984
  56   61    0    0    0
SMALL
USER_CHARGES
NO_NAME
@<TRIPOS>ATOM
    1 C1       -0.6261     1.1143    -0.0802 C.3    1 <0>      -0.0500
    2 N2       -0.4509    -0.3436    -0.0359 N.4    1 <0>      -0.3900
    3 H3       -1.3548    -0.7880     0.0231 H      1 <0>       0.4300
    4 C4        0.3472    -0.7033     1.1430 C.3    1 <0>      -0.0200
    5 C5        0.4339    -2.2291     1.2537 C.3    1 <0>       0.1100
    6 N6        0.9532    -2.7600    -0.0162 N.pl3  1 <0>      -0.6000
    7 C7        2.0139    -3.6481    -0.0352 C.ar   1 <0>       0.5700
    8 N8        2.4423    -4.0890    -1.2117 N.ar   1 <0>      -0.5300
    9 C9        3.4588    -4.9450    -1.3002 C.ar   1 <0>       0.3400
   10 C10       3.9335    -5.4328    -2.6043 C.2    1 <0>      -0.1200
   11 C11       4.4664    -4.6679    -3.6418 C.2    1 <0>       0.0500
   12 C12       4.6673    -3.2188    -3.6559 C.2    1 <0>      -0.1700
   13 C13       5.6571    -2.5107    -2.9981 C.2    1 <0>       0.1100
   14 N14       5.5149    -1.1951    -3.2528 N.pl3  1 <0>      -0.5700
   15 C15       4.4342    -0.9726    -4.0836 C.ar   1 <0>       0.0800
   16 C16       3.8790     0.1798    -4.6287 C.ar   1 <0>      -0.1200
   17 C17       2.7714     0.0909    -5.4452 C.ar   1 <0>      -0.1000
   18 C18       2.2013    -1.1402    -5.7310 C.ar   1 <0>      -0.1300
   19 C19       2.7374    -2.2943    -5.2000 C.ar   1 <0>      -0.0800
   20 C20       3.8591    -2.2190    -4.3795 C.ar   1 <0>      -0.0600
   21 C21       4.7882    -5.6280    -4.7305 C.2    1 <0>       0.5500
   22 O22       5.2727    -5.3449    -5.8068 O.2    1 <0>      -0.4200
   23 N23       4.4518    -6.8627    -4.3198 N.am   1 <0>      -0.6800
   24 C24       3.9478    -6.8280    -3.0753 C.2    1 <0>       0.5700
   25 O25       3.5582    -7.7907    -2.4438 O.2    1 <0>      -0.4400
   26 C26       4.0867    -5.3822    -0.0522 C.ar   1 <0>      -0.1700
   27 C27       5.1590    -6.2765    -0.0304 C.ar   1 <0>      -0.0600
   28 C28       5.7013    -6.6453     1.1668 C.ar   1 <0>      -0.1200
   29 C29       5.1997    -6.1419     2.3638 C.ar   1 <0>      -0.0600
   30 C30       4.1536    -5.2676     2.3760 C.ar   1 <0>      -0.1200
   31 C31       3.5729    -4.8672     1.1644 C.ar   1 <0>       0.2000
   32 N32       2.5476    -4.0065     1.1159 N.ar   1 <0>      -0.5600
   33 C33       0.3123    -2.3202    -1.2652 C.3    1 <0>       0.1100
   34 C34       0.2333    -0.7899    -1.2560 C.3    1 <0>      -0.0200
   35 H35       0.3498     1.5957    -0.1439 H      1 <0>       0.1200
   36 H36      -1.2211     1.3824    -0.9532 H      1 <0>       0.1300
   37 H37      -1.1368     1.4465     0.8236 H      1 <0>       0.1300
   38 H38       1.3502    -0.2886     1.0432 H      1 <0>       0.1300
   39 H39      -0.1254    -0.3002     2.0387 H      1 <0>       0.1400
   40 H40       1.1076    -2.4996     2.0667 H      1 <0>       0.1400
   41 H41      -0.5578    -2.6394     1.4440 H      1 <0>       0.0900
   42 H42       6.4252    -2.9453    -2.3757 H      1 <0>       0.1800
   43 H43       6.0924    -0.4997    -2.9010 H      1 <0>       0.4200
   44 H44       4.3149     1.1440    -4.4124 H      1 <0>       0.1200
   45 H45       2.3436     0.9889    -5.8658 H      1 <0>       0.1300
   46 H46       1.3337    -1.1953    -6.3717 H      1 <0>       0.1300
   47 H47       2.2920    -3.2524    -5.4237 H      1 <0>       0.1200
   48 H48       4.5618    -7.6687    -4.8481 H      1 <0>       0.4400
   49 H49       5.5557    -6.6735    -0.9532 H      1 <0>       0.1300
   50 H50       6.5305    -7.3371     1.1856 H      1 <0>       0.1400
   51 H51       5.6462    -6.4491     3.2979 H      1 <0>       0.1400
   52 H52       3.7748    -4.8861     3.3127 H      1 <0>       0.1400
   53 H53       0.9058    -2.6510    -2.1175 H      1 <0>       0.1400
   54 H54      -0.6916    -2.7398    -1.3292 H      1 <0>       0.0900
   55 H55      -0.3245    -0.4495    -2.1284 H      1 <0>       0.1400
   56 H56       1.2404    -0.3738    -1.2833 H      1 <0>       0.1300
@<TRIPOS>BOND
   1    1    2 1
   2    1   35 1
   3    1   36 1
   4    1   37 1
   5    2    3 1
   6    2   34 1
   7    2    4 1
   8    4    5 1
   9    4   38 1
  10    4   39 1
  11    5    6 1
  12    5   40 1
  13    5   41 1
  14    6    7 1
  15    6   33 1
  16    7   32 ar
  17    7    8 ar
  18    8    9 ar
  19    9   10 1
  20    9   26 ar
  21   10   24 1
  22   10   11 2
  23   11   12 1
  24   11   21 1
  25   12   20 1
  26   12   13 2
  27   13   14 1
  28   13   42 1
  29   14   15 1
  30   14   43 1
  31   15   20 ar
  32   15   16 ar
  33   16   17 ar
  34   16   44 1
  35   17   18 ar
  36   17   45 1
  37   18   19 ar
  38   18   46 1
  39   19   20 ar
  40   19   47 1
  41   21   22 2
  42   21   23 am
  43   23   24 am
  44   23   48 1
  45   24   25 2
  46   26   31 ar
  47   26   27 ar
  48   27   28 ar
  49   27   49 1
  50   28   29 ar
  51   28   50 1
  52   29   30 ar
  53   29   51 1
  54   30   31 ar
  55   30   52 1
  56   31   32 ar
  57   33   34 1
  58   33   53 1
  59   33   54 1
  60   34   55 1
  61   34   56 1
