@<TRIPOS>MOLECULE
ZINC000005158604
  54   55    0    0    0
SMALL
USER_CHARGES
NO_NAME
@<TRIPOS>ATOM
    1 C1        0.0264     1.6703    -0.1752 C.3    1 <0>      -0.1200
    2 C2        0.0746     0.1652    -0.1170 C.2    1 <0>      -0.1300
    3 C3        1.4015    -0.5482    -0.1519 C.3    1 <0>      -0.1200
    4 C4       -1.0372    -0.5231    -0.0361 C.2    1 <0>      -0.1700
    5 C5       -2.3642     0.1903    -0.0012 C.3    1 <0>      -0.0900
    6 C6       -3.2599    -0.3437    -1.1207 C.3    1 <0>      -0.0800
    7 C7       -4.5869     0.3697    -1.0859 C.2    1 <0>      -0.1200
    8 C8       -5.6817    -0.1197    -0.1732 C.3    1 <0>      -0.1200
    9 C9       -4.7887     1.4152    -1.8489 C.2    1 <0>      -0.1600
   10 C10      -6.0711     2.1979    -1.7308 C.3    1 <0>      -0.0500
   11 C11      -5.7523     3.6541    -1.5097 C.ar   1 <0>      -0.1200
   12 C12      -5.6010     4.1406    -0.2189 C.ar   1 <0>       0.1300
   13 O13      -5.7407     3.3033     0.8424 O.3    1 <0>      -0.4900
   14 C14      -5.3076     5.4777    -0.0105 C.ar   1 <0>      -0.1400
   15 C15      -5.1644     6.3372    -1.1021 C.ar   1 <0>      -0.0300
   16 C16      -4.8516     7.7613    -0.8858 C.2    1 <0>      -0.1100
   17 C17      -4.7143     8.5855    -1.9365 C.2    1 <0>      -0.1000
   18 C18      -4.4015    10.0095    -1.7202 C.ar   1 <0>      -0.0600
   19 C19      -4.2415    10.5040    -0.4231 C.ar   1 <0>      -0.1100
   20 C20      -3.9484    11.8376    -0.2284 C.ar   1 <0>      -0.1200
   21 C21      -3.8133    12.6854    -1.3138 C.ar   1 <0>      -0.1200
   22 C22      -3.9704    12.2028    -2.6011 C.ar   1 <0>      -0.1200
   23 C23      -4.2580    10.8704    -2.8114 C.ar   1 <0>      -0.1100
   24 C24      -5.3180     5.8428    -2.3994 C.ar   1 <0>      -0.1500
   25 C25      -5.6053     4.5028    -2.5976 C.ar   1 <0>       0.1300
   26 O26      -5.7550     4.0205    -3.8593 O.3    1 <0>      -0.4900
   27 H27       1.0408     2.0640    -0.2397 H      1 <0>       0.0600
   28 H28      -0.5407     1.9820    -1.0523 H      1 <0>       0.0700
   29 H29      -0.4556     2.0535     0.7242 H      1 <0>       0.0600
   30 H30       1.7706    -0.6790     0.8654 H      1 <0>       0.0700
   31 H31       1.2773    -1.5240    -0.6215 H      1 <0>       0.0600
   32 H32       2.1166     0.0423    -0.7247 H      1 <0>       0.0600
   33 H33      -1.0027    -1.6017     0.0057 H      1 <0>       0.1100
   34 H34      -2.8443     0.0175     0.9620 H      1 <0>       0.0700
   35 H35      -2.2056     1.2596    -0.1415 H      1 <0>       0.0700
   36 H36      -2.7797    -0.1709    -2.0839 H      1 <0>       0.0700
   37 H37      -3.4184    -1.4130    -0.9804 H      1 <0>       0.0700
   38 H38      -5.3647    -1.0429     0.3119 H      1 <0>       0.0600
   39 H39      -5.8883     0.6363     0.5843 H      1 <0>       0.0700
   40 H40      -6.5839    -0.3065    -0.7556 H      1 <0>       0.0700
   41 H41      -4.0361     1.7162    -2.5626 H      1 <0>       0.1000
   42 H42      -6.6496     2.0878    -2.6480 H      1 <0>       0.0900
   43 H43      -6.6506     1.8208    -0.8882 H      1 <0>       0.0900
   44 H44      -4.9177     2.8767     1.1178 H      1 <0>       0.3900
   45 H45      -5.1901     5.8554     0.9944 H      1 <0>       0.1300
   46 H46      -4.7328     8.1417     0.1180 H      1 <0>       0.1300
   47 H47      -4.8331     8.2051    -2.9403 H      1 <0>       0.1200
   48 H48      -4.3473     9.8436     0.4249 H      1 <0>       0.1300
   49 H49      -3.8244    12.2212     0.7735 H      1 <0>       0.1200
   50 H50      -3.5845    13.7289    -1.1552 H      1 <0>       0.1200
   51 H51      -3.8639    12.8704    -3.4434 H      1 <0>       0.1200
   52 H52      -4.3804    10.4951    -3.8167 H      1 <0>       0.1200
   53 H53      -5.2085     6.5036    -3.2466 H      1 <0>       0.1300
   54 H54      -4.9342     3.7006    -4.2581 H      1 <0>       0.3900
@<TRIPOS>BOND
   1    1    2 1
   2    1   27 1
   3    1   28 1
   4    1   29 1
   5    2    3 1
   6    2    4 2
   7    3   30 1
   8    3   31 1
   9    3   32 1
  10    4    5 1
  11    4   33 1
  12    5    6 1
  13    5   34 1
  14    5   35 1
  15    6    7 1
  16    6   36 1
  17    6   37 1
  18    7    8 1
  19    7    9 2
  20    8   38 1
  21    8   39 1
  22    8   40 1
  23    9   10 1
  24    9   41 1
  25   10   11 1
  26   10   42 1
  27   10   43 1
  28   11   25 ar
  29   11   12 ar
  30   12   13 1
  31   12   14 ar
  32   13   44 1
  33   14   15 ar
  34   14   45 1
  35   15   16 1
  36   15   24 ar
  37   16   17 2
  38   16   46 1
  39   17   18 1
  40   17   47 1
  41   18   23 ar
  42   18   19 ar
  43   19   20 ar
  44   19   48 1
  45   20   21 ar
  46   20   49 1
  47   21   22 ar
  48   21   50 1
  49   22   23 ar
  50   22   51 1
  51   23   52 1
  52   24   25 ar
  53   24   53 1
  54   25   26 1
  55   26   54 1
