@<TRIPOS>MOLECULE
ZINC000000023894
33    36    1     0     0
SMALL
USER_CHARGES
@<TRIPOS>ATOM
1      O1      0.0021   -0.0041    0.0020 O.2      1 ZINC000000023894   -0.5200
2      C2     -0.0144    1.2087    0.0087 C.2      1 ZINC000000023894    0.5300
3      C3     -1.3425    1.9245    0.0315 C.3      1 ZINC000000023894   -0.0700
4      C4     -1.4311    2.7605   -1.2214 C.2      1 ZINC000000023894   -0.1400
5      C5     -0.5443    3.7248   -1.5743 C.2      1 ZINC000000023894    0.1300
6      N6     -0.9113    4.2622   -2.7927 N.pl3    1 ZINC000000023894   -0.5700
7      C7     -2.0532    3.6582   -3.2360 C.ar     1 ZINC000000023894    0.1500
8      C8     -2.8144    3.8372   -4.3885 C.ar     1 ZINC000000023894   -0.1200
9      C9     -3.9389    3.0407   -4.5277 C.ar     1 ZINC000000023894   -0.0500
10     C10    -4.3058    2.1050   -3.5749 C.ar     1 ZINC000000023894   -0.0700
11     N11    -5.5235    1.2937   -3.7988 N.pl3    1 ZINC000000023894    0.0300
12     O12    -6.1853    1.4545   -4.8086 O.2      1 ZINC000000023894   -0.1600
13     O13    -5.8637    0.4654   -2.9732 O.2      1 ZINC000000023894   -0.1600
14     C14    -3.5754    1.9057   -2.4291 C.ar     1 ZINC000000023894    0.0200
15     C15    -2.4322    2.6954   -2.2636 C.ar     1 ZINC000000023894   -0.1100
16     C16     0.6168    4.1439   -0.7596 C.ar     1 ZINC000000023894   -0.0600
17     C17     0.9697    5.4979   -0.7672 C.ar     1 ZINC000000023894   -0.0800
18     C18     2.0220    5.9470    0.0006 C.ar     1 ZINC000000023894   -0.1300
19     C19     2.7312    5.0564    0.7876 C.ar     1 ZINC000000023894   -0.0800
20     C20     2.4011    3.7183    0.7936 C.ar     1 ZINC000000023894   -0.1400
21     C21     1.3512    3.2388    0.0075 C.ar     1 ZINC000000023894    0.1800
22     N22     1.1397    1.8718    0.0012 N.am     1 ZINC000000023894   -0.6600
23     H23    -2.1544    1.1974    0.0491 H        1 ZINC000000023894    0.1200
24     H24    -1.4013    2.5672    0.9099 H        1 ZINC000000023894    0.1100
25     H25    -0.4311    4.9622   -3.2621 H        1 ZINC000000023894    0.4300
26     H26    -2.5406    4.5639   -5.1391 H        1 ZINC000000023894    0.1600
27     H27    -4.5509    3.1530   -5.4105 H        1 ZINC000000023894    0.1600
28     H28    -3.8696    1.1746   -1.6907 H        1 ZINC000000023894    0.1600
29     H29     0.4148    6.1944   -1.3783 H        1 ZINC000000023894    0.1300
30     H30     2.2933    6.9923   -0.0120 H        1 ZINC000000023894    0.1300
31     H31     3.5472    5.4115    1.3995 H        1 ZINC000000023894    0.1400
32     H32     2.9605    3.0330    1.4131 H        1 ZINC000000023894    0.1400
33     H33     1.9394    1.3231   -0.0160 H        1 ZINC000000023894    0.4100
@<TRIPOS>BOND
1     1     2     2
2     2     22    am
3     2     3     1
4     3     4     1
5     3     23    1
6     3     24    1
7     4     15    1
8     4     5     2
9     5     6     1
10    5     16    1
11    6     7     1
12    6     25    1
13    7     15    ar
14    7     8     ar
15    8     9     ar
16    8     26    1
17    9     10    ar
18    9     27    1
19    10    11    1
20    10    14    ar
21    11    12    2
22    11    13    2
23    14    15    ar
24    14    28    1
25    16    21    ar
26    16    17    ar
27    17    18    ar
28    17    29    1
29    18    19    ar
30    18    30    1
31    19    20    ar
32    19    31    1
33    20    21    ar
34    20    32    1
35    21    22    1
36    22    33    1
@<TRIPOS>SUBSTRUCTURE
1   ZINC000000023894 1     RESIDUE    1   A     ZIN   1
