@<TRIPOS>MOLECULE
ZINC000040914668
  38   40    0    0    0
SMALL
USER_CHARGES
NO_NAME
@<TRIPOS>ATOM
    1 C1        1.5868     1.0409    -0.2690 C.3    1 <0>      -0.1100
    2 C2        0.7824    -0.2260    -0.1323 C.ar   1 <0>      -0.0600
    3 C3        0.0384    -0.6905    -1.2015 C.ar   1 <0>      -0.1400
    4 C4       -0.7012    -1.8527    -1.0802 C.ar   1 <0>      -0.0600
    5 C5       -1.5104    -2.3551    -2.2481 C.3    1 <0>      -0.1100
    6 C6       -0.6987    -2.5536     0.1097 C.ar   1 <0>      -0.1500
    7 C7        0.0475    -2.0898     1.1856 C.ar   1 <0>       0.1700
    8 N8        0.0522    -2.7970     2.3917 N.pl3  1 <0>      -0.6400
    9 C9        0.1532    -2.1157     3.5938 C.ar   1 <0>       0.5700
   10 N10       0.1277    -0.7906     3.5887 N.ar   1 <0>      -0.5400
   11 C11       0.2210    -0.1022     4.7157 C.ar   1 <0>       0.1900
   12 C12       0.3469    -0.7801     5.9146 C.ar   1 <0>      -0.2300
   13 C13       0.3709    -2.1792     5.8895 C.ar   1 <0>       0.2800
   14 C14       0.5037    -2.9503     7.1434 C.2    1 <0>       0.0900
   15 N15       0.6010    -2.4400     8.3378 N.2    1 <0>      -0.4400
   16 C16       0.7122    -3.2789     9.3384 C.2    1 <0>       0.0600
   17 C17       0.7129    -4.5786     9.0132 C.2    1 <0>      -0.2200
   18 C18       0.8281    -5.7311     9.9774 C.3    1 <0>       0.1500
   19 O19      -0.4768    -6.1267    10.4049 O.3    1 <0>      -0.5700
   20 S20       0.5481    -4.7075     7.2630 S.3    1 <0>       0.1900
   21 N21       0.2671    -2.8051     4.7177 N.ar   1 <0>      -0.5600
   22 C22       0.7933    -0.9249     1.0588 C.ar   1 <0>      -0.1200
   23 H23       2.5864     0.7994    -0.6303 H      1 <0>       0.0700
   24 H24       1.0959     1.7084    -0.9772 H      1 <0>       0.0700
   25 H25       1.6600     1.5313     0.7017 H      1 <0>       0.0700
   26 H26       0.0348    -0.1443    -2.1331 H      1 <0>       0.1200
   27 H27      -0.8983    -3.0237    -2.8534 H      1 <0>       0.0700
   28 H28      -2.3830    -2.8948    -1.8801 H      1 <0>       0.0700
   29 H29      -1.8352    -1.5103    -2.8554 H      1 <0>       0.0700
   30 H30      -1.2765    -3.4612     0.2037 H      1 <0>       0.1200
   31 H31      -0.0152    -3.7646     2.3868 H      1 <0>       0.4200
   32 H32       0.1994     0.9775     4.6989 H      1 <0>       0.1800
   33 H33       0.4251    -0.2425     6.8480 H      1 <0>       0.1600
   34 H34       0.7983    -2.9435    10.3614 H      1 <0>       0.1800
   35 H35       1.3188    -6.5700     9.4839 H      1 <0>       0.0600
   36 H36       1.4162    -5.4238    10.8422 H      1 <0>       0.0700
   37 H37      -0.4791    -6.8657    11.0286 H      1 <0>       0.3900
   38 H38       1.3746    -0.5616     1.8934 H      1 <0>       0.1300
@<TRIPOS>BOND
   1    1    2 1
   2    1   23 1
   3    1   24 1
   4    1   25 1
   5    2   22 ar
   6    2    3 ar
   7    3    4 ar
   8    3   26 1
   9    4    5 1
  10    4    6 ar
  11    5   27 1
  12    5   28 1
  13    5   29 1
  14    6    7 ar
  15    6   30 1
  16    7    8 1
  17    7   22 ar
  18    8    9 1
  19    8   31 1
  20    9   21 ar
  21    9   10 ar
  22   10   11 ar
  23   11   12 ar
  24   11   32 1
  25   12   13 ar
  26   12   33 1
  27   13   14 1
  28   13   21 ar
  29   14   20 1
  30   14   15 2
  31   15   16 1
  32   16   17 2
  33   16   34 1
  34   17   18 1
  35   17   20 1
  36   18   19 1
  37   18   35 1
  38   18   36 1
  39   19   37 1
  40   22   38 1
