@<TRIPOS>MOLECULE
ZINC000004115555
  27   29    0    0    0
SMALL
USER_CHARGES
NO_NAME
@<TRIPOS>ATOM
    1 O1        0.0375     0.0740     0.6506 O.2    1 <0>      -0.4300
    2 C2        0.0041     1.2534     0.3532 C.2    1 <0>       0.5400
    3 N3       -1.0981     2.0181     0.2730 N.am   1 <0>      -0.6600
    4 C4       -0.7859     3.3229    -0.0923 C.ar   1 <0>       0.1600
    5 C5       -1.5855     4.4419    -0.2949 C.ar   1 <0>      -0.1500
    6 C6       -1.0147     5.6445    -0.6615 C.ar   1 <0>      -0.0800
    7 C7        0.3550     5.7523    -0.8318 C.ar   1 <0>      -0.1500
    8 C8        1.1654     4.6517    -0.6351 C.ar   1 <0>      -0.0600
    9 C9        0.6001     3.4363    -0.2657 C.ar   1 <0>      -0.1200
   10 C10       1.1684     2.0997     0.0227 C.2    1 <0>      -0.1200
   11 C11       2.4783     1.7307    -0.0118 C.2    1 <0>       0.0000
   12 C12       2.8450     0.3108     0.0918 C.ar   1 <0>       0.1100
   13 C13       4.1917    -0.0534     0.1826 C.ar   1 <0>      -0.1500
   14 C14       4.5196    -1.3949     0.2800 C.ar   1 <0>      -0.0900
   15 C15       3.4942    -2.3292     0.2838 C.ar   1 <0>      -0.1600
   16 C16       2.1801    -1.8987     0.1907 C.ar   1 <0>       0.1000
   17 N17       1.8924    -0.6185     0.1041 N.ar   1 <0>      -0.4100
   18 H18      -1.9976     1.7000     0.4476 H      1 <0>       0.4200
   19 H19      -2.6553     4.3704    -0.1655 H      1 <0>       0.1300
   20 H20      -1.6427     6.5091    -0.8174 H      1 <0>       0.1300
   21 H21       0.7900     6.6981    -1.1191 H      1 <0>       0.1300
   22 H22       2.2340     4.7346    -0.7679 H      1 <0>       0.1300
   23 H23       3.2481     2.4811    -0.1153 H      1 <0>       0.1500
   24 H24       4.9649     0.7006     0.1764 H      1 <0>       0.1400
   25 H25       5.5511    -1.7072     0.3511 H      1 <0>       0.1400
   26 H26       3.7181    -3.3831     0.3582 H      1 <0>       0.1400
   27 H27       1.3807    -2.6249     0.1935 H      1 <0>       0.1600
@<TRIPOS>BOND
   1    1    2 2
   2    2   10 1
   3    2    3 am
   4    3    4 1
   5    3   18 1
   6    4    9 ar
   7    4    5 ar
   8    5    6 ar
   9    5   19 1
  10    6    7 ar
  11    6   20 1
  12    7    8 ar
  13    7   21 1
  14    8    9 ar
  15    8   22 1
  16    9   10 1
  17   10   11 2
  18   11   12 1
  19   11   23 1
  20   12   17 ar
  21   12   13 ar
  22   13   14 ar
  23   13   24 1
  24   14   15 ar
  25   14   25 1
  26   15   16 ar
  27   15   26 1
  28   16   17 ar
  29   16   27 1
