@<TRIPOS>MOLECULE
ZINC000000537891
45    48    1     0     0
SMALL
USER_CHARGES
@<TRIPOS>ATOM
1      C1      0.0327    1.8896    0.3153 C.3      1 ZINC000000537891   -0.1600
2      C2      0.0516    0.3696    0.1415 C.3      1 ZINC000000537891    0.0900
3      H3      0.5735    0.1154   -0.7811 H        1 ZINC000000537891    0.1200
4      C4     -1.3851   -0.1552    0.0771 C.3      1 ZINC000000537891    0.0500
5      O5     -2.0118    0.0655    1.3465 O.3      1 ZINC000000537891   -0.2800
6      C6     -1.3691   -0.4632    2.4249 C.ar     1 ZINC000000537891    0.1100
7      C7     -2.0892   -0.8353    3.5511 C.ar     1 ZINC000000537891    0.0800
8      N8     -3.4743   -0.6615    3.5773 N.3      1 ZINC000000537891   -0.4800
9      C9     -3.8721    0.2334    4.6729 C.3      1 ZINC000000537891    0.0500
10     C10    -5.3847    0.4608    4.6186 C.3      1 ZINC000000537891    0.0600
11     N11    -6.0758   -0.8320    4.7211 N.3      1 ZINC000000537891   -0.5500
12     C12    -7.5331   -0.6492    4.7486 C.3      1 ZINC000000537891    0.0300
13     C13    -5.6779   -1.7269    3.6254 C.3      1 ZINC000000537891    0.0600
14     C14    -4.1654   -1.9544    3.6798 C.3      1 ZINC000000537891    0.0500
15     C15    -1.4380   -1.3828    4.6580 C.ar     1 ZINC000000537891    0.0500
16     F16    -2.1498   -1.7391    5.7496 F        1 ZINC000000537891   -0.1300
17     C17    -0.0830   -1.5599    4.6412 C.ar     1 ZINC000000537891   -0.0800
18     C18     0.6557   -1.1893    3.5142 C.ar     1 ZINC000000537891   -0.1400
19     C19     0.0144   -0.6288    2.3954 C.ar     1 ZINC000000537891    0.1400
20     N20     0.7445   -0.2465    1.2832 N.pl3    1 ZINC000000537891   -0.4900
21     C21     2.0737   -0.4167    1.2119 C.2      1 ZINC000000537891    0.1600
22     C22     2.8107   -0.9618    2.2435 C.2      1 ZINC000000537891   -0.3000
23     C23     4.2624   -1.1243    2.1168 C.2      1 ZINC000000537891    0.5400
24     O24     4.8300   -0.7753    1.0899 O.co2    1 ZINC000000537891   -0.7000
25     O25     4.9067   -1.6089    3.0380 O.co2    1 ZINC000000537891   -0.6600
26     C26     2.1158   -1.3774    3.4738 C.2      1 ZINC000000537891    0.4200
27     O27     2.7221   -1.8555    4.4168 O.2      1 ZINC000000537891   -0.4400
28     H28     1.0558    2.2627    0.3623 H        1 ZINC000000537891    0.0700
29     H29    -0.4818    2.3457   -0.5304 H        1 ZINC000000537891    0.0800
30     H30    -0.4892    2.1433    1.2380 H        1 ZINC000000537891    0.0700
31     H31    -1.9344    0.3773   -0.6994 H        1 ZINC000000537891    0.1300
32     H32    -1.3750   -1.2222   -0.1452 H        1 ZINC000000537891    0.0700
33     H33    -3.6067   -0.2204    5.6277 H        1 ZINC000000537891    0.0600
34     H34    -3.3568    1.1882    4.5679 H        1 ZINC000000537891    0.0800
35     H35    -5.6862    1.1011    5.4476 H        1 ZINC000000537891    0.0800
36     H36    -5.6468    0.9395    3.6750 H        1 ZINC000000537891    0.0400
37     H37    -7.8544   -0.1527    3.8329 H        1 ZINC000000537891    0.0300
38     H38    -8.0199   -1.6214    4.8248 H        1 ZINC000000537891    0.0700
39     H39    -7.8064   -0.0376    5.6085 H        1 ZINC000000537891    0.0700
40     H40    -6.1932   -2.6817    3.7304 H        1 ZINC000000537891    0.0800
41     H41    -5.9434   -1.2731    2.6706 H        1 ZINC000000537891    0.0400
42     H42    -3.8639   -2.5946    2.8508 H        1 ZINC000000537891    0.0800
43     H43    -3.9033   -2.4330    4.6233 H        1 ZINC000000537891    0.0600
44     H44     0.4168   -1.9858    5.4986 H        1 ZINC000000537891    0.1500
45     H45     2.5872   -0.1154    0.3109 H        1 ZINC000000537891    0.1700
@<TRIPOS>BOND
1     1     2     1
2     1     28    1
3     1     29    1
4     1     30    1
5     2     3     1
6     2     20    1
7     2     4     1
8     4     5     1
9     4     31    1
10    4     32    1
11    5     6     1
12    6     19    ar
13    6     7     ar
14    7     8     1
15    7     15    ar
16    8     14    1
17    8     9     1
18    9     10    1
19    9     33    1
20    9     34    1
21    10    11    1
22    10    35    1
23    10    36    1
24    11    12    1
25    11    13    1
26    12    37    1
27    12    38    1
28    12    39    1
29    13    14    1
30    13    40    1
31    13    41    1
32    14    42    1
33    14    43    1
34    15    16    1
35    15    17    ar
36    17    18    ar
37    17    44    1
38    18    26    1
39    18    19    ar
40    19    20    1
41    20    21    1
42    21    22    2
43    21    45    1
44    22    23    1
45    22    26    1
46    23    24    ar
47    23    25    ar
48    26    27    2
@<TRIPOS>SUBSTRUCTURE
1   ZINC000000537891 1     RESIDUE    1   A     ZIN   1
