@<TRIPOS>MOLECULE
ZINC000001159030
47    49    1     0     0
SMALL
USER_CHARGES
@<TRIPOS>ATOM
1      O1      0.0020   -0.0040    0.0119 O.2      1 ZINC000001159030   -0.5000
2      C2     -0.0145    1.2116    0.0104 C.2      1 ZINC000001159030    0.5600
3      N3      1.1435    1.9011    0.0014 N.am     1 ZINC000001159030   -0.6700
4      C4      2.3626    1.2219    0.0916 C.ar     1 ZINC000001159030    0.1500
5      C5      3.4243    1.7871    0.7858 C.ar     1 ZINC000001159030   -0.1300
6      C6      4.6274    1.1140    0.8733 C.ar     1 ZINC000001159030   -0.0900
7      C7      4.7758   -0.1212    0.2705 C.ar     1 ZINC000001159030   -0.1000
8      C8      3.7201   -0.6875   -0.4224 C.ar     1 ZINC000001159030   -0.0700
9      Br9     3.9283   -2.3771   -1.2458 Br       1 ZINC000001159030   -0.0400
10     C10     2.5121   -0.0221   -0.5079 C.ar     1 ZINC000001159030   -0.0900
11     C11    -1.3044    1.9333    0.0124 C.ar     1 ZINC000001159030   -0.1600
12     C12    -1.3269    3.3288    0.0049 C.ar     1 ZINC000001159030   -0.0300
13     C13    -2.5344    3.9962    0.0064 C.ar     1 ZINC000001159030   -0.1400
14     C14    -3.7212    3.2854    0.0152 C.ar     1 ZINC000001159030    0.0100
15     C15    -3.7060    1.9016    0.0232 C.ar     1 ZINC000001159030   -0.6900
16     S16    -5.2233    1.0060    0.0351 S.o2     1 ZINC000001159030    2.6800
17     O17    -4.9312   -0.2710    0.5856 O.2      1 ZINC000001159030   -0.9500
18     O18    -6.2018    1.8814    0.5787 O.2      1 ZINC000001159030   -0.9500
19     N19    -5.6524    0.7476   -1.5434 N.am     1 ZINC000001159030   -0.9900
20     C20    -6.4722    1.7350   -2.2092 C.3      1 ZINC000001159030    0.1200
21     C21    -7.9684    1.4001   -1.9919 C.3      1 ZINC000001159030   -0.1400
22     C22    -8.3426    0.2069   -2.7665 C.3      1 ZINC000001159030   -0.1200
23     C23    -7.6073   -1.0652   -2.3557 C.3      1 ZINC000001159030   -0.1200
24     C24    -6.2814   -1.1303   -3.0729 C.3      1 ZINC000001159030   -0.1200
25     C25    -5.1772   -0.4783   -2.2142 C.3      1 ZINC000001159030    0.1100
26     C26    -2.5058    1.2220    0.0160 C.ar     1 ZINC000001159030    0.0400
27     H27     1.1313    2.8686   -0.0678 H        1 ZINC000001159030    0.4100
28     H28     3.3096    2.7524    1.2564 H        1 ZINC000001159030    0.1300
29     H29     5.4532    1.5535    1.4131 H        1 ZINC000001159030    0.1400
30     H30     5.7176   -0.6452    0.3402 H        1 ZINC000001159030    0.1400
31     H31     1.6883   -0.4643   -1.0484 H        1 ZINC000001159030    0.1500
32     H32    -0.4011    3.8849   -0.0017 H        1 ZINC000001159030    0.1400
33     H33    -2.5532    5.0761    0.0009 H        1 ZINC000001159030    0.1400
34     H34    -4.6637    3.8127    0.0163 H        1 ZINC000001159030    0.1500
35     H35    -6.2577    2.7216   -1.7984 H        1 ZINC000001159030    0.0800
36     H36    -6.2506    1.7307   -3.2765 H        1 ZINC000001159030    0.0800
37     H37    -8.1461    1.2130   -0.9329 H        1 ZINC000001159030    0.0700
38     H38    -8.5777    2.2447   -2.3136 H        1 ZINC000001159030    0.0800
39     H39    -9.4135    0.0405   -2.6502 H        1 ZINC000001159030    0.0600
40     H40    -8.1383    0.3999   -3.8197 H        1 ZINC000001159030    0.0600
41     H41    -7.4383   -1.0559   -1.2789 H        1 ZINC000001159030    0.0600
42     H42    -8.2081   -1.9347   -2.6223 H        1 ZINC000001159030    0.0700
43     H43    -6.0238   -2.1723   -3.2625 H        1 ZINC000001159030    0.0800
44     H44    -6.3576   -0.6002   -4.0222 H        1 ZINC000001159030    0.0700
45     H45    -4.3297   -0.2329   -2.8543 H        1 ZINC000001159030    0.0700
46     H46    -4.8516   -1.1905   -1.4561 H        1 ZINC000001159030    0.1000
47     H47    -2.4953    0.1421    0.0222 H        1 ZINC000001159030    0.1600
@<TRIPOS>BOND
1     1     2     2
2     2     3     am
3     2     11    1
4     3     4     1
5     3     27    1
6     4     10    ar
7     4     5     ar
8     5     6     ar
9     5     28    1
10    6     7     ar
11    6     29    1
12    7     8     ar
13    7     30    1
14    8     9     1
15    8     10    ar
16    10    31    1
17    11    26    ar
18    11    12    ar
19    12    13    ar
20    12    32    1
21    13    14    ar
22    13    33    1
23    14    15    ar
24    14    34    1
25    15    16    1
26    15    26    ar
27    16    17    2
28    16    18    2
29    16    19    am
30    19    25    1
31    19    20    1
32    20    21    1
33    20    35    1
34    20    36    1
35    21    22    1
36    21    37    1
37    21    38    1
38    22    23    1
39    22    39    1
40    22    40    1
41    23    24    1
42    23    41    1
43    23    42    1
44    24    25    1
45    24    43    1
46    24    44    1
47    25    45    1
48    25    46    1
49    26    47    1
@<TRIPOS>SUBSTRUCTURE
1   ZINC000001159030 1     RESIDUE    1   A     ZIN   1
