@<TRIPOS>MOLECULE
ZINC000058638742
28    29    1     0     0
SMALL
USER_CHARGES
@<TRIPOS>ATOM
1      C1      0.4704    0.7996   -0.6964 C.3      1 ZINC000058638742    0.0400
2      N2     -0.0426    0.0056    0.4280 N.3      1 ZINC000058638742   -0.4800
3      C3      0.0161    0.7690    1.6816 C.3      1 ZINC000058638742    0.0400
4      C4     -1.3254   -0.4352    0.1772 C.2      1 ZINC000058638742    0.4800
5      N5     -2.3645    0.3400   -0.0078 N.2      1 ZINC000058638742   -0.5100
6      C6     -3.4685   -0.4216   -0.2302 C.ar     1 ZINC000058638742    0.1000
7      C7     -4.8096   -0.1178   -0.4799 C.ar     1 ZINC000058638742    0.0000
8      Br8    -5.3750    1.6850   -0.5588 Br       1 ZINC000058638742   -0.0100
9      C9     -5.7189   -1.1367   -0.6690 C.ar     1 ZINC000058638742   -0.0600
10     Br10   -7.5334   -0.7251   -1.0069 Br       1 ZINC000058638742    0.0000
11     C11    -5.3118   -2.4625   -0.6136 C.ar     1 ZINC000058638742   -0.0500
12     Br12   -6.5747   -3.8452   -0.8764 Br       1 ZINC000058638742    0.0000
13     C13    -3.9895   -2.7780   -0.3681 C.ar     1 ZINC000058638742   -0.0200
14     Br14   -3.4448   -4.5874   -0.2952 Br       1 ZINC000058638742    0.0100
15     C15    -3.0622   -1.7646   -0.1747 C.ar     1 ZINC000058638742    0.1000
16     N16    -1.6998   -1.7447    0.0792 N.pl3    1 ZINC000058638742   -0.4100
17     C17    -0.8247   -2.9114    0.2180 C.3      1 ZINC000058638742    0.0200
18     C18    -0.3673   -3.3614   -1.1456 C.2      1 ZINC000058638742    0.5000
19     O19    -0.7380   -2.7630   -2.1411 O.co2    1 ZINC000058638742   -0.6700
20     O20     0.3734   -4.3238   -1.2533 O.co2    1 ZINC000058638742   -0.6800
21     H21     1.4832    1.1345   -0.4725 H        1 ZINC000058638742    0.0800
22     H22     0.4811    0.1876   -1.5984 H        1 ZINC000058638742    0.0800
23     H23    -0.1725    1.6658   -0.8527 H        1 ZINC000058638742    0.0500
24     H24    -0.5696    1.6824    1.5786 H        1 ZINC000058638742    0.0500
25     H25    -0.3907    0.1661    2.4935 H        1 ZINC000058638742    0.0700
26     H26     1.0523    1.0248    1.9030 H        1 ZINC000058638742    0.0800
27     H27     0.0424   -2.6453    0.8226 H        1 ZINC000058638742    0.1000
28     H28    -1.3715   -3.7201    0.7030 H        1 ZINC000058638742    0.1000
@<TRIPOS>BOND
1     1     2     1
2     1     21    1
3     1     22    1
4     1     23    1
5     2     3     1
6     2     4     1
7     3     24    1
8     3     25    1
9     3     26    1
10    4     16    1
11    4     5     2
12    5     6     1
13    6     15    ar
14    6     7     ar
15    7     8     1
16    7     9     ar
17    9     10    1
18    9     11    ar
19    11    12    1
20    11    13    ar
21    13    14    1
22    13    15    ar
23    15    16    1
24    16    17    1
25    17    18    1
26    17    27    1
27    17    28    1
28    18    19    ar
29    18    20    ar
@<TRIPOS>SUBSTRUCTURE
1   ZINC000058638742 1     RESIDUE    1   A     ZIN   1
