@<TRIPOS>MOLECULE
ZINC000056907343
38    41    1     0     0
SMALL
USER_CHARGES
@<TRIPOS>ATOM
1      F1      0.0255    0.0719   -0.8766 F        1 ZINC000056907343   -0.1400
2      C2      0.0012    1.4042   -0.6540 C.ar     1 ZINC000056907343    0.0800
3      C3     -0.9966    1.9557    0.1320 C.ar     1 ZINC000056907343   -0.1300
4      C4     -1.0231    3.3174    0.3613 C.ar     1 ZINC000056907343   -0.1200
5      C5     -0.0481    4.1337   -0.1971 C.ar     1 ZINC000056907343    0.1600
6      N6     -0.0727    5.5135    0.0342 N.pl3    1 ZINC000056907343   -0.6300
7      C7      1.1156    6.2226    0.1261 C.ar     1 ZINC000056907343    0.5900
8      N8      1.0655    7.5438    0.2389 N.ar     1 ZINC000056907343   -0.5800
9      C9      2.1780    8.2668    0.3304 C.ar     1 ZINC000056907343    0.4300
10     N10     2.1171    9.6458    0.4485 N.3      1 ZINC000056907343   -0.4700
11     C11     2.8238   10.1031    1.6538 C.3      1 ZINC000056907343    0.0200
12     C12     2.7832   11.6324    1.7133 C.3      1 ZINC000056907343    0.0600
13     O13     1.4217   12.0696    1.6852 O.3      1 ZINC000056907343   -0.3800
14     C14     0.7038   11.6424    0.5244 C.3      1 ZINC000056907343    0.0600
15     C15     0.7233   10.1133    0.4529 C.3      1 ZINC000056907343    0.0300
16     C16     3.4085    7.6074    0.3056 C.ar     1 ZINC000056907343   -0.1200
17     N17     4.7308    7.9992    0.3740 N.pl3    1 ZINC000056907343   -0.5700
18     C18     5.4829    6.8787    0.2968 C.2      1 ZINC000056907343    0.3100
19     N19     4.7152    5.8302    0.1862 N.2      1 ZINC000056907343   -0.4900
20     C20     3.4232    6.2086    0.1851 C.ar     1 ZINC000056907343    0.3500
21     N21     2.2577    5.5581    0.1035 N.ar     1 ZINC000056907343   -0.5400
22     C22     0.9516    3.5784   -0.9851 C.ar     1 ZINC000056907343   -0.0800
23     C23     0.9773    2.2155   -1.2074 C.ar     1 ZINC000056907343   -0.1300
24     H24    -1.7548    1.3206    0.5657 H        1 ZINC000056907343    0.1400
25     H25    -1.8016    3.7472    0.9741 H        1 ZINC000056907343    0.1300
26     H26    -0.9210    5.9741    0.1303 H        1 ZINC000056907343    0.4300
27     H27     2.3382    9.6914    2.5386 H        1 ZINC000056907343    0.0700
28     H28     3.8602    9.7677    1.6174 H        1 ZINC000056907343    0.0800
29     H29     3.2560   11.9735    2.6343 H        1 ZINC000056907343    0.1100
30     H30     3.3155   12.0443    0.8559 H        1 ZINC000056907343    0.0700
31     H31    -0.3273   11.9908    0.5855 H        1 ZINC000056907343    0.1100
32     H32     1.1756   12.0546   -0.3675 H        1 ZINC000056907343    0.0600
33     H33     0.2265    9.7852   -0.4602 H        1 ZINC000056907343    0.1000
34     H34     0.2041    9.7017    1.3184 H        1 ZINC000056907343    0.0700
35     H35     5.0586    8.9080    0.4611 H        1 ZINC000056907343    0.4300
36     H36     6.5623    6.8551    0.3230 H        1 ZINC000056907343    0.2300
37     H37     1.7106    4.2114   -1.4206 H        1 ZINC000056907343    0.1400
38     H38     1.7548    1.7833   -1.8199 H        1 ZINC000056907343    0.1400
@<TRIPOS>BOND
1     1     2     1
2     2     23    ar
3     2     3     ar
4     3     4     ar
5     3     24    1
6     4     5     ar
7     4     25    1
8     5     6     1
9     5     22    ar
10    6     7     1
11    6     26    1
12    7     21    ar
13    7     8     ar
14    8     9     ar
15    9     10    1
16    9     16    ar
17    10    15    1
18    10    11    1
19    11    12    1
20    11    27    1
21    11    28    1
22    12    13    1
23    12    29    1
24    12    30    1
25    13    14    1
26    14    15    1
27    14    31    1
28    14    32    1
29    15    33    1
30    15    34    1
31    16    20    ar
32    16    17    1
33    17    18    1
34    17    35    1
35    18    19    2
36    18    36    1
37    19    20    1
38    20    21    ar
39    22    23    ar
40    22    37    1
41    23    38    1
@<TRIPOS>SUBSTRUCTURE
1   ZINC000056907343 1     RESIDUE    1   A     ZIN   1
