@<TRIPOS>MOLECULE
ZINC000148723177
80    84    1     0     0
SMALL
USER_CHARGES
@<TRIPOS>ATOM
1      C1     -0.0382    1.4276    0.0575 C.3      1 ZINC000148723177    0.0300
2      O2     -0.0158   -0.0010    0.0352 O.3      1 ZINC000148723177   -0.3200
3      C3      0.6362   -0.6242    1.0530 C.ar     1 ZINC000148723177    0.1200
4      C4      1.2355    0.1229    2.0526 C.ar     1 ZINC000148723177   -0.2000
5      C5      1.9010   -0.5155    3.0910 C.ar     1 ZINC000148723177    0.1100
6      N6      2.5070    0.2389    4.1019 N.3      1 ZINC000148723177   -0.4900
7      C7      3.4634    1.2007    3.5392 C.3      1 ZINC000148723177    0.0600
8      C8      3.9965    2.1036    4.6539 C.3      1 ZINC000148723177   -0.1400
9      C9      4.6783    1.2416    5.7200 C.3      1 ZINC000148723177    0.0200
10     N10     5.1407    2.0971    6.8211 N.4      1 ZINC000148723177   -0.3800
11     H11     4.3515    2.5750    7.2296 H        1 ZINC000148723177    0.4200
12     C12     6.0972    3.0850    6.3046 C.3      1 ZINC000148723177   -0.0100
13     C13     6.5649    3.9885    7.4478 C.3      1 ZINC000148723177    0.0300
14     N14     7.1970    3.1674    8.4901 N.3      1 ZINC000148723177   -0.5400
15     C15     7.7109    4.0059    9.5813 C.3      1 ZINC000148723177    0.0200
16     C16     6.2587    2.1571    8.9993 C.3      1 ZINC000148723177    0.0300
17     C17     5.7939    1.2688    7.8432 C.3      1 ZINC000148723177   -0.0100
18     C18     3.6745    0.2167    6.2552 C.3      1 ZINC000148723177   -0.1400
19     C19     3.1507   -0.6315    5.0941 C.3      1 ZINC000148723177    0.0500
20     C20     1.9649   -1.9019    3.1270 C.ar     1 ZINC000148723177   -0.1800
21     C21     1.3674   -2.6492    2.1294 C.ar     1 ZINC000148723177   -0.0600
22     C22     0.6972   -2.0156    1.0940 C.ar     1 ZINC000148723177    0.1300
23     N23     0.0905   -2.7750    0.0818 N.pl3    1 ZINC000148723177   -0.6200
24     C24    -0.3020   -4.0788    0.3352 C.ar     1 ZINC000148723177    0.6000
25     N25    -0.2125   -4.5517    1.5694 N.ar     1 ZINC000148723177   -0.5700
26     C26    -0.5787   -5.7938    1.8514 C.ar     1 ZINC000148723177    0.2300
27     C27    -1.0599   -6.6027    0.8397 C.ar     1 ZINC000148723177   -0.2400
28     Cl28   -1.5509   -8.2355    1.1660 Cl       1 ZINC000148723177   -0.0400
29     C29    -1.1427   -6.0759   -0.4522 C.ar     1 ZINC000148723177    0.4900
30     N30    -1.6194   -6.8508   -1.4989 N.pl3    1 ZINC000148723177   -0.6400
31     C31    -1.5843   -6.3573   -2.8063 C.ar     1 ZINC000148723177    0.2300
32     C32    -0.6599   -5.3821   -3.1575 C.ar     1 ZINC000148723177   -0.1400
33     C33    -0.6276   -4.8970   -4.4504 C.ar     1 ZINC000148723177   -0.0600
34     C34    -1.5145   -5.3808   -5.3943 C.ar     1 ZINC000148723177   -0.1500
35     C35    -2.4367   -6.3516   -5.0477 C.ar     1 ZINC000148723177   -0.0500
36     C36    -2.4703   -6.8454   -3.7586 C.ar     1 ZINC000148723177   -0.7600
37     P37    -3.6802   -8.1186   -3.3052 P.3      1 ZINC000148723177    2.5300
38     C38    -4.8858   -8.3204   -4.6577 C.3      1 ZINC000148723177   -0.8100
39     C39    -2.8195   -9.6997   -3.0174 C.3      1 ZINC000148723177   -0.8100
40     O40    -4.3872   -7.7100   -2.0709 O.2      1 ZINC000148723177   -0.9900
41     N41    -0.7625   -4.8198   -0.6618 N.ar     1 ZINC000148723177   -0.5900
42     H42     0.9830    1.8075    0.0271 H        1 ZINC000148723177    0.0500
43     H43    -0.5887    1.7959   -0.8082 H        1 ZINC000148723177    0.1000
44     H44    -0.5259    1.7692    0.9705 H        1 ZINC000148723177    0.0600
45     H45     1.1858    1.2014    2.0247 H        1 ZINC000148723177    0.1300
46     H46     4.2925    0.6622    3.0802 H        1 ZINC000148723177    0.0600
47     H47     2.9647    1.8101    2.7855 H        1 ZINC000148723177    0.1000
48     H48     4.7180    2.8071    4.2386 H        1 ZINC000148723177    0.1000
49     H49     3.1696    2.6528    5.1041 H        1 ZINC000148723177    0.1000
50     H50     5.5298    0.7231    5.2793 H        1 ZINC000148723177    0.1400
51     H51     6.9558    2.5691    5.8748 H        1 ZINC000148723177    0.1400
52     H52     5.6154    3.6904    5.5369 H        1 ZINC000148723177    0.1400
53     H53     7.2860    4.7121    7.0677 H        1 ZINC000148723177    0.1200
54     H54     5.7084    4.5149    7.8690 H        1 ZINC000148723177    0.0600
55     H55     6.8889    4.5654   10.0277 H        1 ZINC000148723177    0.0400
56     H56     8.1734    3.3732   10.3388 H        1 ZINC000148723177    0.0800
57     H57     8.4519    4.7014    9.1870 H        1 ZINC000148723177    0.0800
58     H58     6.7565    1.5447    9.7511 H        1 ZINC000148723177    0.1200
59     H59     5.3972    2.6534    9.4461 H        1 ZINC000148723177    0.0600
60     H60     5.0869    0.5277    8.2160 H        1 ZINC000148723177    0.1400
61     H61     6.6542    0.7624    7.4056 H        1 ZINC000148723177    0.1400
62     H62     4.1660   -0.4278    6.9840 H        1 ZINC000148723177    0.1000
63     H63     2.8425    0.7362    6.7307 H        1 ZINC000148723177    0.1000
64     H64     2.4250   -1.3528    5.4697 H        1 ZINC000148723177    0.1100
65     H65     3.9813   -1.1614    4.6278 H        1 ZINC000148723177    0.0600
66     H66     2.4824   -2.3972    3.9352 H        1 ZINC000148723177    0.1300
67     H67     1.4186   -3.7276    2.1589 H        1 ZINC000148723177    0.1600
68     H68    -0.0539   -2.3868   -0.7953 H        1 ZINC000148723177    0.4300
69     H69    -0.5015   -6.1698    2.8609 H        1 ZINC000148723177    0.1800
70     H70    -1.9772   -7.7352   -1.3238 H        1 ZINC000148723177    0.4200
71     H71     0.0327   -5.0033   -2.4205 H        1 ZINC000148723177    0.1500
72     H72     0.0910   -4.1387   -4.7242 H        1 ZINC000148723177    0.1300
73     H73    -1.4874   -4.9996   -6.4044 H        1 ZINC000148723177    0.1300
74     H74    -3.1283   -6.7271   -5.7874 H        1 ZINC000148723177    0.1300
75     H75    -4.3650   -8.6213   -5.5667 H        1 ZINC000148723177    0.0900
76     H76    -5.6128   -9.0855   -4.3852 H        1 ZINC000148723177    0.1100
77     H77    -5.4004   -7.3751   -4.8297 H        1 ZINC000148723177    0.1100
78     H78    -2.0987   -9.5790   -2.2088 H        1 ZINC000148723177    0.1000
79     H79    -3.5465  -10.4648   -2.7450 H        1 ZINC000148723177    0.1200
80     H80    -2.2988  -10.0006   -3.9265 H        1 ZINC000148723177    0.1000
@<TRIPOS>BOND
1     1     2     1
2     1     42    1
3     1     43    1
4     1     44    1
5     2     3     1
6     3     22    ar
7     3     4     ar
8     4     5     ar
9     4     45    1
10    5     6     1
11    5     20    ar
12    6     19    1
13    6     7     1
14    7     8     1
15    7     46    1
16    7     47    1
17    8     9     1
18    8     48    1
19    8     49    1
20    9     10    1
21    9     18    1
22    9     50    1
23    10    11    1
24    10    17    1
25    10    12    1
26    12    13    1
27    12    51    1
28    12    52    1
29    13    14    1
30    13    53    1
31    13    54    1
32    14    15    1
33    14    16    1
34    15    55    1
35    15    56    1
36    15    57    1
37    16    17    1
38    16    58    1
39    16    59    1
40    17    60    1
41    17    61    1
42    18    19    1
43    18    62    1
44    18    63    1
45    19    64    1
46    19    65    1
47    20    21    ar
48    20    66    1
49    21    22    ar
50    21    67    1
51    22    23    1
52    23    24    1
53    23    68    1
54    24    41    ar
55    24    25    ar
56    25    26    ar
57    26    27    ar
58    26    69    1
59    27    28    1
60    27    29    ar
61    29    30    1
62    29    41    ar
63    30    31    1
64    30    70    1
65    31    36    ar
66    31    32    ar
67    32    33    ar
68    32    71    1
69    33    34    ar
70    33    72    1
71    34    35    ar
72    34    73    1
73    35    36    ar
74    35    74    1
75    36    37    1
76    37    38    1
77    37    39    1
78    37    40    2
79    38    75    1
80    38    76    1
81    38    77    1
82    39    78    1
83    39    79    1
84    39    80    1
@<TRIPOS>SUBSTRUCTURE
1   ZINC000148723177 1     RESIDUE    1   A     ZIN   1
