@<TRIPOS>MOLECULE
ZINC000410026391
49    52    1     0     0
SMALL
USER_CHARGES
@<TRIPOS>ATOM
1      O1      0.0019   -0.0030    0.0189 O.2      1 ZINC000410026391   -0.5100
2      C2     -0.0147    1.2098    0.0109 C.2      1 ZINC000410026391    0.5300
3      C3      1.2798    1.9810   -0.0108 C.3      1 ZINC000410026391   -0.1600
4      C4      2.4562    1.0027   -0.0192 C.3      1 ZINC000410026391    0.1100
5      N5      3.7146    1.7524   -0.0403 N.am     1 ZINC000410026391   -0.5400
6      C6      4.2770    2.0948   -1.2280 C.2      1 ZINC000410026391    0.3800
7      N7      5.3921    2.7594   -1.2939 N.2      1 ZINC000410026391   -0.5000
8      C8      6.0527    3.1463   -0.1797 C.2      1 ZINC000410026391    0.0700
9      C9      5.5360    2.8307    1.0673 C.2      1 ZINC000410026391   -0.2200
10     C10     6.3635    3.3171    2.1663 C.2      1 ZINC000410026391   -0.0300
11     C11     7.4528    3.9748    1.7681 C.2      1 ZINC000410026391   -0.1900
12     C12     8.4816    4.5966    2.6919 C.3      1 ZINC000410026391   -0.0500
13     C13     8.8844    3.5998    3.7765 C.3      1 ZINC000410026391   -0.1200
14     C14     7.9618    3.7691    4.9803 C.3      1 ZINC000410026391   -0.1200
15     C15     6.5660    4.1690    4.5069 C.3      1 ZINC000410026391   -0.1300
16     C16     5.9918    3.0694    3.6208 C.3      1 ZINC000410026391   -0.0600
17     S17     7.5527    4.0381    0.0138 S.3      1 ZINC000410026391    0.2000
18     C18     4.3053    2.1033    1.1190 C.2      1 ZINC000410026391    0.5600
19     O19     3.8062    1.7997    2.1888 O.2      1 ZINC000410026391   -0.5100
20     N20    -1.1910    1.8676    0.0158 N.am     1 ZINC000410026391   -0.6700
21     C21    -2.3912    1.1557   -0.0870 C.ar     1 ZINC000410026391    0.2200
22     C22    -2.4108   -0.0902   -0.6995 C.ar     1 ZINC000410026391   -0.1400
23     C23    -3.5972   -0.7907   -0.7990 C.ar     1 ZINC000410026391   -0.0400
24     C24    -4.7643   -0.2525   -0.2893 C.ar     1 ZINC000410026391   -0.1400
25     C25    -4.7481    0.9883    0.3214 C.ar     1 ZINC000410026391   -0.0300
26     C26    -3.5644    1.6913    0.4287 C.ar     1 ZINC000410026391   -0.0800
27     N27    -3.5479    3.0189    1.0828 N.pl3    1 ZINC000410026391    0.0400
28     O28    -4.5586    3.4525    1.6063 O.2      1 ZINC000410026391   -0.1400
29     O29    -2.5237    3.6779    1.0975 O.2      1 ZINC000410026391   -0.1900
30     H30     1.3176    2.6023   -0.9056 H        1 ZINC000410026391    0.1100
31     H31     1.3403    2.6144    0.8742 H        1 ZINC000410026391    0.1100
32     H32     2.4183    0.3814    0.8756 H        1 ZINC000410026391    0.1100
33     H33     2.3957    0.3693   -0.9042 H        1 ZINC000410026391    0.1100
34     H34     3.7835    1.8063   -2.1443 H        1 ZINC000410026391    0.2100
35     H35     9.3623    4.8781    2.1147 H        1 ZINC000410026391    0.0700
36     H36     8.0579    5.4862    3.1580 H        1 ZINC000410026391    0.0900
37     H37     8.7955    2.5847    3.3894 H        1 ZINC000410026391    0.0700
38     H38     9.9149    3.7865    4.0783 H        1 ZINC000410026391    0.0700
39     H39     7.9033    2.8282    5.5275 H        1 ZINC000410026391    0.0700
40     H40     8.3587    4.5447    5.6352 H        1 ZINC000410026391    0.0600
41     H41     5.9176    4.3146    5.3708 H        1 ZINC000410026391    0.0700
42     H42     6.6275    5.0975    3.9391 H        1 ZINC000410026391    0.0700
43     H43     4.9063    3.0566    3.7189 H        1 ZINC000410026391    0.0900
44     H44     6.3918    2.1058    3.9364 H        1 ZINC000410026391    0.0800
45     H45    -1.2056    2.8346    0.0905 H        1 ZINC000410026391    0.4300
46     H46    -1.4995   -0.5110   -1.0982 H        1 ZINC000410026391    0.1700
47     H47    -3.6132   -1.7597   -1.2756 H        1 ZINC000410026391    0.1500
48     H48    -5.6907   -0.8020   -0.3686 H        1 ZINC000410026391    0.1500
49     H49    -5.6616    1.4061    0.7182 H        1 ZINC000410026391    0.1600
@<TRIPOS>BOND
1     1     2     2
2     2     3     1
3     2     20    am
4     3     4     1
5     3     30    1
6     3     31    1
7     4     5     1
8     4     32    1
9     4     33    1
10    5     18    am
11    5     6     1
12    6     7     2
13    6     34    1
14    7     8     1
15    8     17    1
16    8     9     2
17    9     10    1
18    9     18    1
19    10    16    1
20    10    11    2
21    11    12    1
22    11    17    1
23    12    13    1
24    12    35    1
25    12    36    1
26    13    14    1
27    13    37    1
28    13    38    1
29    14    15    1
30    14    39    1
31    14    40    1
32    15    16    1
33    15    41    1
34    15    42    1
35    16    43    1
36    16    44    1
37    18    19    2
38    20    21    1
39    20    45    1
40    21    26    ar
41    21    22    ar
42    22    23    ar
43    22    46    1
44    23    24    ar
45    23    47    1
46    24    25    ar
47    24    48    1
48    25    26    ar
49    25    49    1
50    26    27    1
51    27    28    2
52    27    29    2
@<TRIPOS>SUBSTRUCTURE
1   ZINC000410026391 1     RESIDUE    1   A     ZIN   1
