@<TRIPOS>MOLECULE
ZINC000000538362
  50   53    0    0    0
SMALL
USER_CHARGES
NO_NAME
@<TRIPOS>ATOM
    1 C1       -0.3200     1.8877    -0.8355 C.3    1 <0>      -0.1800
    2 C2       -0.2456     0.3797    -0.5878 C.3    1 <0>       0.0100
    3 H3        0.3213    -0.0928    -1.3899 H      1 <0>       0.1400
    4 C4       -1.6624    -0.2026    -0.5516 C.3    1 <0>       0.1300
    5 N5       -1.5730    -1.6242    -0.1837 N.pl3  1 <0>      -0.6700
    6 C6       -2.2175    -2.6027    -0.9404 C.ar   1 <0>       0.1900
    7 C7       -3.5253    -2.9658    -0.6280 C.ar   1 <0>      -0.0300
    8 F8       -4.1623    -2.3703     0.4039 F      1 <0>      -0.1300
    9 C9       -4.1741    -3.9361    -1.3737 C.ar   1 <0>       0.2900
   10 N10      -5.4825    -4.3009    -1.0636 N.pl3  1 <0>      -0.8400
   11 C11      -3.5046    -4.5487    -2.4440 C.ar   1 <0>      -0.2300
   12 C12      -4.1608    -5.5812    -3.2575 C.2    1 <0>       0.4300
   13 O13      -5.3041    -5.9375    -3.0294 O.2    1 <0>      -0.4500
   14 C14      -3.3797    -6.1683    -4.3612 C.2    1 <0>      -0.2800
   15 C15      -3.9639    -7.2037    -5.2187 C.2    1 <0>       0.5300
   16 O16      -3.3063    -7.6844    -6.1326 O.co2  1 <0>      -0.7000
   17 O17      -5.1094    -7.5876    -5.0211 O.co2  1 <0>      -0.6600
   18 C18      -2.0883    -5.7264    -4.5745 C.2    1 <0>       0.1400
   19 N19      -1.5233    -4.7829    -3.8119 N.pl3  1 <0>      -0.4600
   20 C20      -0.1486    -4.3718    -4.1074 C.3    1 <0>       0.0200
   21 C21       0.5683    -5.0794    -5.2591 C.3    1 <0>      -0.1800
   22 C22       0.1002    -3.6321    -5.4234 C.3    1 <0>      -0.1800
   23 C23      -2.1822    -4.1800    -2.7581 C.ar   1 <0>       0.2300
   24 C24      -1.5508    -3.2014    -2.0018 C.ar   1 <0>      -0.0100
   25 F25      -0.2842    -2.8346    -2.2957 F      1 <0>      -0.1300
   26 C26      -0.7842    -1.9844     1.0046 C.3    1 <0>       0.1300
   27 C27       0.5911    -1.3180     0.8950 C.3    1 <0>       0.0100
   28 H28       1.1327    -1.7393     0.0480 H      1 <0>       0.1400
   29 C29       1.3822    -1.5662     2.1808 C.3    1 <0>      -0.1800
   30 N30       0.4196     0.1268     0.6966 N.4    1 <0>      -0.5000
   31 H31       1.3235     0.5751     0.7000 H      1 <0>       0.4200
   32 H32      -0.1439     0.5031     1.4441 H      1 <0>       0.4200
   33 H33       0.6879     2.3019    -0.8609 H      1 <0>       0.0800
   34 H34      -0.8141     2.0754    -1.7888 H      1 <0>       0.1100
   35 H35      -0.8869     2.3602    -0.0332 H      1 <0>       0.0800
   36 H36      -2.2588     0.3305     0.1888 H      1 <0>       0.0800
   37 H37      -2.1229    -0.1070    -1.5349 H      1 <0>       0.1200
   38 H38      -6.0264    -3.7256    -0.5031 H      1 <0>       0.4000
   39 H39      -5.8494    -5.1301    -1.4081 H      1 <0>       0.4300
   40 H40      -1.5158    -6.1567    -5.3829 H      1 <0>       0.1800
   41 H41       0.4505    -4.0798    -3.2449 H      1 <0>       0.1600
   42 H42       1.6392    -5.2532    -5.1543 H      1 <0>       0.1100
   43 H43       0.0170    -5.8508    -5.7969 H      1 <0>       0.1200
   44 H44      -0.7590    -3.4513    -6.0693 H      1 <0>       0.1000
   45 H45       0.8632    -2.8537    -5.4267 H      1 <0>       0.1100
   46 H46      -1.2919    -1.6312     1.9021 H      1 <0>       0.0800
   47 H47      -0.6641    -3.0668     1.0501 H      1 <0>       0.1200
   48 H48       1.5090    -2.6387     2.3282 H      1 <0>       0.1100
   49 H49       2.3606    -1.0920     2.1028 H      1 <0>       0.0800
   50 H50       0.8407    -1.1446     3.0277 H      1 <0>       0.0800
@<TRIPOS>BOND
   1    1    2 1
   2    1   33 1
   3    1   34 1
   4    1   35 1
   5    2    3 1
   6    2   30 1
   7    2    4 1
   8    4    5 1
   9    4   36 1
  10    4   37 1
  11    5    6 1
  12    5   26 1
  13    6   24 ar
  14    6    7 ar
  15    7    8 1
  16    7    9 ar
  17    9   10 1
  18    9   11 ar
  19   10   38 1
  20   10   39 1
  21   11   23 ar
  22   11   12 1
  23   12   13 2
  24   12   14 1
  25   14   15 1
  26   14   18 2
  27   15   16 ar
  28   15   17 ar
  29   18   19 1
  30   18   40 1
  31   19   20 1
  32   19   23 1
  33   20   22 1
  34   20   21 1
  35   20   41 1
  36   21   22 1
  37   21   42 1
  38   21   43 1
  39   22   44 1
  40   22   45 1
  41   23   24 ar
  42   24   25 1
  43   26   27 1
  44   26   46 1
  45   26   47 1
  46   27   28 1
  47   27   29 1
  48   27   30 1
  49   29   48 1
  50   29   49 1
  51   29   50 1
  52   30   31 1
  53   30   32 1
