@<TRIPOS>MOLECULE
ZINC000113570569
57    60    1     0     0
SMALL
USER_CHARGES
@<TRIPOS>ATOM
1      C1     -0.0187    1.5258    0.0104 C.3      1 ZINC000113570569   -0.1400
2      C2      0.0021   -0.0041    0.0020 C.3      1 ZINC000113570569   -0.1400
3      C3      0.7309   -0.5033    1.2229 C.2      1 ZINC000113570569    0.5300
4      O4      1.1887    0.2867    2.0212 O.2      1 ZINC000113570569   -0.5300
5      N5      0.8741   -1.8277    1.4277 N.am     1 ZINC000113570569   -0.6200
6      C6      0.3766   -2.8904    0.5419 C.3      1 ZINC000113570569    0.1000
7      C7      0.7960   -4.2390    1.1639 C.3      1 ZINC000113570569   -0.1400
8      C8      1.9941   -3.8469    2.0684 C.3      1 ZINC000113570569    0.1400
9      H9      2.9154   -3.7808    1.4897 H        1 ZINC000113570569    0.1100
10     N10     2.1425   -4.7887    3.1808 N.pl3    1 ZINC000113570569   -0.7000
11     C11     2.8811   -5.9486    3.0124 C.ar     1 ZINC000113570569    0.4500
12     N12     3.4640   -6.2148    1.8479 N.ar     1 ZINC000113570569   -0.5700
13     C13     4.1663   -7.3181    1.6862 C.ar     1 ZINC000113570569    0.3400
14     N14     4.3166   -8.1940    2.6578 N.ar     1 ZINC000113570569   -0.5600
15     C15     3.7632   -7.9976    3.8501 C.ar     1 ZINC000113570569    0.2200
16     C16     3.0300   -6.8555    4.0671 C.ar     1 ZINC000113570569   -0.2500
17     C17     2.3833   -6.5588    5.3912 C.3      1 ZINC000113570569    0.1000
18     N18     2.2944   -7.7789    6.2014 N.3      1 ZINC000113570569   -0.4700
19     C19     1.7849   -7.4993    7.4748 C.ar     1 ZINC000113570569    0.0200
20     C20     1.4343   -6.2033    7.8221 C.ar     1 ZINC000113570569    0.1300
21     N21     0.9533   -5.9331    9.0209 N.ar     1 ZINC000113570569   -0.5100
22     C22     0.7867   -6.8764    9.9318 C.ar     1 ZINC000113570569    0.3500
23     O23     0.2883   -6.5501   11.1520 O.3      1 ZINC000113570569   -0.3000
24     C24    -0.0308   -5.1753   11.3759 C.3      1 ZINC000113570569    0.0400
25     C25     1.1148   -8.1974    9.6556 C.ar     1 ZINC000113570569   -0.2300
26     C26     0.9209   -9.2659   10.7004 C.3      1 ZINC000113570569    0.5200
27     F27     1.3218  -10.5023   10.1830 F        1 ZINC000113570569   -0.1800
28     F28     1.6905   -8.9607   11.8281 F        1 ZINC000113570569   -0.1700
29     F29    -0.4297   -9.3268   11.0601 F        1 ZINC000113570569   -0.1700
30     C30     1.6178   -8.5210    8.4082 C.ar     1 ZINC000113570569   -0.0100
31     C31     3.6109   -8.4300    6.2914 C.3      1 ZINC000113570569    0.0500
32     C32     3.9577   -9.0291    4.9293 C.3      1 ZINC000113570569   -0.0700
33     C33     1.5609   -2.4506    2.5739 C.3      1 ZINC000113570569    0.1000
34     H34     1.0039    1.9031    0.0027 H        1 ZINC000113570569    0.0600
35     H35    -0.5459    1.8868   -0.8726 H        1 ZINC000113570569    0.0600
36     H36    -0.5289    1.8773    0.9072 H        1 ZINC000113570569    0.0600
37     H37    -1.0205   -0.3814    0.0098 H        1 ZINC000113570569    0.0900
38     H38     0.5123   -0.3556   -0.8948 H        1 ZINC000113570569    0.0900
39     H39    -0.7098   -2.8364    0.4719 H        1 ZINC000113570569    0.0700
40     H40     0.8197   -2.7851   -0.4484 H        1 ZINC000113570569    0.0800
41     H41    -0.0154   -4.6583    1.7588 H        1 ZINC000113570569    0.0800
42     H42     1.1101   -4.9395    0.3900 H        1 ZINC000113570569    0.0900
43     H43     1.7237   -4.6001    4.0351 H        1 ZINC000113570569    0.4100
44     H44     4.6311   -7.5093    0.7302 H        1 ZINC000113570569    0.2000
45     H45     2.9762   -5.8150    5.9234 H        1 ZINC000113570569    0.0600
46     H46     1.3814   -6.1640    5.2227 H        1 ZINC000113570569    0.0900
47     H47     1.5566   -5.4063    7.1036 H        1 ZINC000113570569    0.1700
48     H48    -0.4183   -5.0523   12.3872 H        1 ZINC000113570569    0.1000
49     H49     0.8673   -4.5695   11.2548 H        1 ZINC000113570569    0.0600
50     H50    -0.7846   -4.8554   10.6565 H        1 ZINC000113570569    0.0600
51     H51     1.8812   -9.5399    8.1656 H        1 ZINC000113570569    0.1600
52     H52     4.3657   -7.6928    6.5653 H        1 ZINC000113570569    0.0600
53     H53     3.5779   -9.2197    7.0420 H        1 ZINC000113570569    0.1000
54     H54     3.3050   -9.8792    4.7308 H        1 ZINC000113570569    0.1000
55     H55     4.9950   -9.3639    4.9344 H        1 ZINC000113570569    0.1000
56     H56     2.4333   -1.8641    2.8622 H        1 ZINC000113570569    0.0900
57     H57     0.8735   -2.5477    3.4142 H        1 ZINC000113570569    0.0700
@<TRIPOS>BOND
1     1     2     1
2     1     34    1
3     1     35    1
4     1     36    1
5     2     3     1
6     2     37    1
7     2     38    1
8     3     4     2
9     3     5     am
10    5     33    1
11    5     6     1
12    6     7     1
13    6     39    1
14    6     40    1
15    7     8     1
16    7     41    1
17    7     42    1
18    8     9     1
19    8     10    1
20    8     33    1
21    10    11    1
22    10    43    1
23    11    16    ar
24    11    12    ar
25    12    13    ar
26    13    14    ar
27    13    44    1
28    14    15    ar
29    15    32    1
30    15    16    ar
31    16    17    1
32    17    18    1
33    17    45    1
34    17    46    1
35    18    19    1
36    18    31    1
37    19    30    ar
38    19    20    ar
39    20    21    ar
40    20    47    1
41    21    22    ar
42    22    23    1
43    22    25    ar
44    23    24    1
45    24    48    1
46    24    49    1
47    24    50    1
48    25    26    1
49    25    30    ar
50    26    27    1
51    26    28    1
52    26    29    1
53    30    51    1
54    31    32    1
55    31    52    1
56    31    53    1
57    32    54    1
58    32    55    1
59    33    56    1
60    33    57    1
@<TRIPOS>SUBSTRUCTURE
1   ZINC000113570569 1     RESIDUE    1   A     ZIN   1
