@<TRIPOS>MOLECULE
ZINC000575448880
49    51    1     0     0
SMALL
USER_CHARGES
@<TRIPOS>ATOM
1      C1     -0.0173    1.4248    0.0099 C.3      1 ZINC000575448880    0.0300
2      O2      0.0021   -0.0041    0.0020 O.3      1 ZINC000575448880   -0.3100
3      C3     -1.2003   -0.6375    0.0101 C.ar     1 ZINC000575448880    0.1700
4      C4     -2.3718    0.1020    0.0195 C.ar     1 ZINC000575448880   -0.2300
5      C5     -3.6044   -0.5484    0.0273 C.ar     1 ZINC000575448880    0.0500
6      C6     -4.8599    0.2394    0.0368 C.2      1 ZINC000575448880   -0.1500
7      C7     -5.1906    1.0211   -1.0229 C.2      1 ZINC000575448880    0.1500
8      N8     -6.3343    1.7590   -1.0527 N.am     1 ZINC000575448880   -0.5200
9      C9     -6.6147    2.5759   -2.2361 C.3      1 ZINC000575448880    0.0600
10     C10    -7.2189    1.7667   -0.0357 C.2      1 ZINC000575448880    0.5500
11     O11    -8.2301    2.4414   -0.1054 O.2      1 ZINC000575448880   -0.5100
12     C12    -6.9517    0.9543    1.1547 C.ar     1 ZINC000575448880   -0.2100
13     C13    -7.8152    0.9085    2.2458 C.ar     1 ZINC000575448880    0.1900
14     N14    -7.5155    0.1567    3.2863 N.ar     1 ZINC000575448880   -0.5000
15     C15    -6.4126   -0.5712    3.3467 C.ar     1 ZINC000575448880    0.1300
16     C16    -5.5053   -0.5891    2.3221 C.ar     1 ZINC000575448880   -0.1800
17     C17    -5.7662    0.1811    1.1887 C.ar     1 ZINC000575448880    0.0600
18     C18    -3.6538   -1.9412    0.0256 C.ar     1 ZINC000575448880   -0.2300
19     C19    -2.4784   -2.6744    0.0163 C.ar     1 ZINC000575448880    0.1900
20     O20    -2.5256   -4.0326    0.0142 O.3      1 ZINC000575448880   -0.3000
21     C21    -3.8206   -4.6367    0.0221 C.3      1 ZINC000575448880    0.0300
22     C22    -1.2532   -2.0237    0.0032 C.ar     1 ZINC000575448880   -0.1400
23     C23     0.0233   -2.8247   -0.0071 C.3      1 ZINC000575448880    0.1100
24     N24     0.4250   -3.0881   -1.3953 N.3      1 ZINC000575448880   -0.5400
25     C25     0.7886   -1.8423   -2.0836 C.3      1 ZINC000575448880    0.0300
26     C26     1.5252   -4.0600   -1.4496 C.3      1 ZINC000575448880    0.0300
27     H27     1.0053    1.8021    0.0021 H        1 ZINC000575448880    0.1000
28     H28    -0.5445    1.7859   -0.8732 H        1 ZINC000575448880    0.0600
29     H29    -0.5275    1.7763    0.9067 H        1 ZINC000575448880    0.0600
30     H30    -2.3299    1.1812    0.0211 H        1 ZINC000575448880    0.1300
31     H31    -4.5233    1.0592   -1.8712 H        1 ZINC000575448880    0.1700
32     H32    -7.1830    1.9881   -2.9570 H        1 ZINC000575448880    0.0800
33     H33    -7.1941    3.4517   -1.9441 H        1 ZINC000575448880    0.1000
34     H34    -5.6756    2.8955   -2.6877 H        1 ZINC000575448880    0.0900
35     H35    -8.7272    1.4871    2.2400 H        1 ZINC000575448880    0.1700
36     H36    -6.2231   -1.1667    4.2275 H        1 ZINC000575448880    0.1600
37     H37    -4.6098   -1.1892    2.3879 H        1 ZINC000575448880    0.1400
38     H38    -4.6073   -2.4484    0.0320 H        1 ZINC000575448880    0.1300
39     H39    -3.7155   -5.7216    0.0194 H        1 ZINC000575448880    0.1000
40     H40    -4.3609   -4.3262    0.9163 H        1 ZINC000575448880    0.0600
41     H41    -4.3732   -4.3231   -0.8636 H        1 ZINC000575448880    0.0600
42     H42     0.8089   -2.2627    0.4981 H        1 ZINC000575448880    0.0500
43     H43    -0.1370   -3.7705    0.5105 H        1 ZINC000575448880    0.0900
44     H44     1.6210   -1.3691   -1.5627 H        1 ZINC000575448880    0.0300
45     H45     1.0819   -2.0662   -3.1093 H        1 ZINC000575448880    0.0600
46     H46    -0.0673   -1.1674   -2.0895 H        1 ZINC000575448880    0.0700
47     H47     1.2049   -4.9973   -0.9946 H        1 ZINC000575448880    0.0700
48     H48     1.8029   -4.2368   -2.4887 H        1 ZINC000575448880    0.0700
49     H49     2.3843   -3.6671   -0.9058 H        1 ZINC000575448880    0.0200
@<TRIPOS>BOND
1     1     2     1
2     1     27    1
3     1     28    1
4     1     29    1
5     2     3     1
6     3     22    ar
7     3     4     ar
8     4     5     ar
9     4     30    1
10    5     6     1
11    5     18    ar
12    6     17    1
13    6     7     2
14    7     8     1
15    7     31    1
16    8     9     1
17    8     10    am
18    9     32    1
19    9     33    1
20    9     34    1
21    10    11    2
22    10    12    1
23    12    17    ar
24    12    13    ar
25    13    14    ar
26    13    35    1
27    14    15    ar
28    15    16    ar
29    15    36    1
30    16    17    ar
31    16    37    1
32    18    19    ar
33    18    38    1
34    19    20    1
35    19    22    ar
36    20    21    1
37    21    39    1
38    21    40    1
39    21    41    1
40    22    23    1
41    23    24    1
42    23    42    1
43    23    43    1
44    24    25    1
45    24    26    1
46    25    44    1
47    25    45    1
48    25    46    1
49    26    47    1
50    26    48    1
51    26    49    1
@<TRIPOS>SUBSTRUCTURE
1   ZINC000575448880 1     RESIDUE    1   A     ZIN   1
