@<TRIPOS>MOLECULE
ZINC000013538921
37    40    1     0     0
SMALL
USER_CHARGES
@<TRIPOS>ATOM
1      N1      0.2055    1.3443    0.1943 N.am     1 ZINC000013538921   -1.2500
2      S2     -0.0884   -0.2787    0.0455 S.o2     1 ZINC000013538921    2.7100
3      O3      1.1799   -0.9055   -0.0879 O.2      1 ZINC000013538921   -0.9600
4      O4     -1.0172   -0.6136    1.0675 O.2      1 ZINC000013538921   -0.9600
5      C5     -0.9257   -0.5188   -1.4861 C.ar     1 ZINC000013538921   -0.7000
6      C6     -2.3087   -0.4673   -1.5334 C.ar     1 ZINC000013538921    0.0100
7      C7     -2.9789   -0.6534   -2.7257 C.ar     1 ZINC000013538921   -0.1600
8      C8     -2.2675   -0.8952   -3.8955 C.ar     1 ZINC000013538921    0.1900
9      N9     -2.6833   -1.1136   -5.2031 N.am     1 ZINC000013538921   -0.6500
10     C10    -1.6371   -1.3071   -6.0240 C.2      1 ZINC000013538921    0.5600
11     O11    -1.6973   -1.5205   -7.2220 O.2      1 ZINC000013538921   -0.5000
12     C12    -0.4090   -1.2157   -5.2248 C.2      1 ZINC000013538921   -0.2200
13     C13     0.8916   -1.3509   -5.6660 C.2      1 ZINC000013538921    0.1100
14     C14     1.1488   -1.7703   -6.9931 C.2      1 ZINC000013538921   -0.2200
15     C15     0.4221   -2.6845   -7.7285 C.2      1 ZINC000013538921    0.1700
16     N16     0.9783   -2.8214   -8.9556 N.pl3    1 ZINC000013538921   -0.5800
17     C17     2.0872   -2.0087   -9.0795 C.ar     1 ZINC000013538921    0.0800
18     C18     2.9883   -1.7861  -10.1157 C.ar     1 ZINC000013538921   -0.1200
19     C19     4.0248   -0.8937   -9.9464 C.ar     1 ZINC000013538921   -0.1000
20     C20     4.1816   -0.2117   -8.7491 C.ar     1 ZINC000013538921   -0.1300
21     C21     3.2992   -0.4191   -7.7107 C.ar     1 ZINC000013538921   -0.0800
22     C22     2.2443   -1.3127   -7.8706 C.ar     1 ZINC000013538921   -0.0700
23     C23    -0.8677   -0.9462   -3.8434 C.ar     1 ZINC000013538921   -0.1100
24     C24    -0.2018   -0.7525   -2.6382 C.ar     1 ZINC000013538921    0.0300
25     H25     1.1169    1.6670    0.2721 H        1 ZINC000013538921    0.4200
26     H26    -0.5335    1.9725    0.1996 H        1 ZINC000013538921    0.4200
27     H27    -2.8682   -0.2799   -0.6289 H        1 ZINC000013538921    0.1500
28     H28    -4.0578   -0.6116   -2.7498 H        1 ZINC000013538921    0.1400
29     H29    -3.6107   -1.1249   -5.4873 H        1 ZINC000013538921    0.4200
30     H30     1.7133   -1.1366   -4.9986 H        1 ZINC000013538921    0.1400
31     H31    -0.4545   -3.2099   -7.3791 H        1 ZINC000013538921    0.1800
32     H32     0.6440   -3.4093   -9.6509 H        1 ZINC000013538921    0.4200
33     H33     2.8759   -2.3125  -11.0520 H        1 ZINC000013538921    0.1200
34     H34     4.7219   -0.7242  -10.7537 H        1 ZINC000013538921    0.1300
35     H35     4.9985    0.4846   -8.6298 H        1 ZINC000013538921    0.1300
36     H36     3.4232    0.1127   -6.7789 H        1 ZINC000013538921    0.1300
37     H37     0.8770   -0.7873   -2.6030 H        1 ZINC000013538921    0.1500
@<TRIPOS>BOND
1     1     2     am
2     1     25    1
3     1     26    1
4     2     3     2
5     2     4     2
6     2     5     1
7     5     24    ar
8     5     6     ar
9     6     7     ar
10    6     27    1
11    7     8     ar
12    7     28    1
13    8     23    ar
14    8     9     1
15    9     10    am
16    9     29    1
17    10    11    2
18    10    12    1
19    12    13    2
20    12    23    1
21    13    14    1
22    13    30    1
23    14    22    1
24    14    15    2
25    15    16    1
26    15    31    1
27    16    17    1
28    16    32    1
29    17    22    ar
30    17    18    ar
31    18    19    ar
32    18    33    1
33    19    20    ar
34    19    34    1
35    20    21    ar
36    20    35    1
37    21    22    ar
38    21    36    1
39    23    24    ar
40    24    37    1
@<TRIPOS>SUBSTRUCTURE
1   ZINC000013538921 1     RESIDUE    1   A     ZIN   1
