@<TRIPOS>MOLECULE
ZINC000013973811
53    56    1     0     0
SMALL
USER_CHARGES
@<TRIPOS>ATOM
1      C1     -0.0173    1.4248    0.0099 C.3      1 ZINC000013973811    0.0400
2      O2      0.0021   -0.0041    0.0020 O.3      1 ZINC000013973811   -0.3700
3      C3      0.6518   -0.5703   -1.1379 C.3      1 ZINC000013973811    0.0300
4      H4      0.5366    0.0982   -1.9911 H        1 ZINC000013973811    0.0500
5      C5      0.0214   -1.9259   -1.4632 C.3      1 ZINC000013973811   -0.0600
6      C6     -1.4129   -1.7257   -1.8803 C.ar     1 ZINC000013973811   -0.0600
7      C7     -1.7132   -1.4212   -3.2126 C.ar     1 ZINC000013973811   -0.1000
8      S8     -0.6549   -1.2119   -4.6023 S.3      1 ZINC000013973811    0.1200
9      C9     -2.0074   -0.8818   -5.6675 C.2      1 ZINC000013973811   -0.2200
10     C10    -3.1532   -0.9285   -5.0180 C.2      1 ZINC000013973811   -0.1000
11     C11    -3.0415   -1.2354   -3.6012 C.ar     1 ZINC000013973811   -0.1000
12     C12    -4.0613   -1.3598   -2.6275 C.ar     1 ZINC000013973811    0.1600
13     O13    -5.3610   -1.1833   -2.9823 O.3      1 ZINC000013973811   -0.3100
14     C14    -6.3399   -1.3231   -1.9506 C.3      1 ZINC000013973811    0.0700
15     C15    -7.7343   -1.0909   -2.5357 C.3      1 ZINC000013973811   -0.0300
16     C16    -8.7666   -1.2383   -1.4477 C.2      1 ZINC000013973811   -0.0100
17     C17    -9.3887   -2.3780   -1.0948 C.2      1 ZINC000013973811   -0.0300
18     C18    -9.1827   -3.7367   -1.7132 C.3      1 ZINC000013973811   -0.0700
19     O19   -10.2302   -2.0786   -0.0856 O.3      1 ZINC000013973811   -0.1900
20     C20   -10.1139   -0.7634    0.1668 C.2      1 ZINC000013973811    0.2300
21     C21   -10.8586   -0.0137    1.2005 C.ar     1 ZINC000013973811   -0.0200
22     C22   -10.6496    1.3571    1.3592 C.ar     1 ZINC000013973811   -0.0700
23     C23   -11.3482    2.0510    2.3256 C.ar     1 ZINC000013973811   -0.1200
24     C24   -12.2544    1.3909    3.1364 C.ar     1 ZINC000013973811   -0.1000
25     C25   -12.4662    0.0322    2.9843 C.ar     1 ZINC000013973811   -0.1200
26     C26   -11.7780   -0.6725    2.0182 C.ar     1 ZINC000013973811   -0.0900
27     N27    -9.2244   -0.2577   -0.6548 N.2      1 ZINC000013973811   -0.4600
28     C28    -3.7413   -1.6593   -1.3228 C.ar     1 ZINC000013973811   -0.2100
29     C29    -2.4179   -1.8490   -0.9506 C.ar     1 ZINC000013973811   -0.0500
30     C30     2.1173   -0.7564   -0.8398 C.2      1 ZINC000013973811    0.4800
31     O31     2.5472   -0.5200    0.2763 O.co2    1 ZINC000013973811   -0.6800
32     O32     2.8730   -1.1433   -1.7149 O.co2    1 ZINC000013973811   -0.7000
33     H33     1.0053    1.8021    0.0021 H        1 ZINC000013973811    0.0400
34     H34    -0.5445    1.7859   -0.8732 H        1 ZINC000013973811    0.0200
35     H35    -0.5275    1.7763    0.9067 H        1 ZINC000013973811    0.0700
36     H36     0.5736   -2.3977   -2.2759 H        1 ZINC000013973811    0.0900
37     H37     0.0573   -2.5645   -0.5806 H        1 ZINC000013973811    0.0800
38     H38    -1.9136   -0.6670   -6.7217 H        1 ZINC000013973811    0.1600
39     H39    -4.1028   -0.7520   -5.5013 H        1 ZINC000013973811    0.1400
40     H40    -6.2846   -2.3276   -1.5310 H        1 ZINC000013973811    0.0600
41     H41    -6.1483   -0.5908   -1.1663 H        1 ZINC000013973811    0.0700
42     H42    -7.7896   -0.0864   -2.9552 H        1 ZINC000013973811    0.0900
43     H43    -7.9259   -1.8232   -3.3200 H        1 ZINC000013973811    0.0900
44     H44    -8.3877   -4.2607   -1.1825 H        1 ZINC000013973811    0.0900
45     H45   -10.1062   -4.3115   -1.6435 H        1 ZINC000013973811    0.0800
46     H46    -8.9051   -3.6208   -2.7609 H        1 ZINC000013973811    0.1000
47     H47    -9.9423    1.8735    0.7272 H        1 ZINC000013973811    0.1400
48     H48   -11.1872    3.1117    2.4496 H        1 ZINC000013973811    0.1300
49     H49   -12.7984    1.9387    3.8916 H        1 ZINC000013973811    0.1300
50     H50   -13.1747   -0.4772    3.6207 H        1 ZINC000013973811    0.1300
51     H51   -11.9446   -1.7330    1.9003 H        1 ZINC000013973811    0.1300
52     H52    -4.5250   -1.7530   -0.5856 H        1 ZINC000013973811    0.1300
53     H53    -2.1759   -2.0840    0.0753 H        1 ZINC000013973811    0.1300
@<TRIPOS>BOND
1     1     2     1
2     1     33    1
3     1     34    1
4     1     35    1
5     2     3     1
6     3     4     1
7     3     5     1
8     3     30    1
9     5     6     1
10    5     36    1
11    5     37    1
12    6     29    ar
13    6     7     ar
14    7     11    ar
15    7     8     1
16    8     9     1
17    9     10    2
18    9     38    1
19    10    11    1
20    10    39    1
21    11    12    ar
22    12    13    1
23    12    28    ar
24    13    14    1
25    14    15    1
26    14    40    1
27    14    41    1
28    15    16    1
29    15    42    1
30    15    43    1
31    16    27    1
32    16    17    2
33    17    18    1
34    17    19    1
35    18    44    1
36    18    45    1
37    18    46    1
38    19    20    1
39    20    21    1
40    20    27    2
41    21    26    ar
42    21    22    ar
43    22    23    ar
44    22    47    1
45    23    24    ar
46    23    48    1
47    24    25    ar
48    24    49    1
49    25    26    ar
50    25    50    1
51    26    51    1
52    28    29    ar
53    28    52    1
54    29    53    1
55    30    31    ar
56    30    32    ar
@<TRIPOS>SUBSTRUCTURE
1   ZINC000013973811 1     RESIDUE    1   A     ZIN   1
