@<TRIPOS>MOLECULE
ZINC000095099981
  38   41    0    0    0
SMALL
USER_CHARGES
NO_NAME
@<TRIPOS>ATOM
    1 C1       -0.0187     1.5258     0.0104 C.3    1 <0>      -0.1500
    2 C2        0.0021    -0.0041     0.0020 C.3    1 <0>      -0.1400
    3 C3        0.7182    -0.4975    -1.2568 C.3    1 <0>       0.1200
    4 N4        0.7381    -1.9623    -1.2648 N.pl3  1 <0>      -0.7000
    5 C5        1.3401    -2.6443    -2.3181 C.2    1 <0>       0.4100
    6 N6        1.8926    -1.9683    -3.2978 N.2    1 <0>      -0.3500
    7 N7        2.5027    -2.6336    -4.3656 N.pl3  1 <0>      -0.2400
    8 C8        3.1409    -2.1916    -5.4947 C.2    1 <0>       0.0600
    9 C9        3.3586    -0.7849    -5.8910 C.ar   1 <0>      -0.0500
   10 C10       4.0197    -0.5083    -7.0706 C.ar   1 <0>      -0.0200
   11 C11       4.2268     0.8341    -7.4475 C.ar   1 <0>      -0.2100
   12 C12       4.8298     1.4596    -8.5242 C.2    1 <0>       0.0900
   13 N13       4.7239     2.7839    -8.3426 N.pl3  1 <0>      -0.4200
   14 N14       4.0504     3.0493    -7.1450 N.2    1 <0>      -0.3100
   15 C15       3.7301     1.9047    -6.5689 C.ar   1 <0>       0.1100
   16 C16       3.0612     1.5526    -5.3751 C.ar   1 <0>      -0.1000
   17 C17       2.8824     0.2491    -5.0605 C.ar   1 <0>      -0.0600
   18 C18       3.5412    -3.3137    -6.1890 C.2    1 <0>       0.0200
   19 N19       3.1583    -4.3859    -5.5033 N.2    1 <0>      -0.4500
   20 C20       2.5291    -4.0033    -4.3982 C.2    1 <0>       0.1400
   21 C21       1.9356    -4.7273    -3.3458 C.2    1 <0>       0.0200
   22 C22       1.3549    -4.0518    -2.3183 C.2    1 <0>      -0.2000
   23 H23       1.0039     1.9031     0.0027 H      1 <0>       0.0600
   24 H24      -0.5459     1.8868    -0.8726 H      1 <0>       0.0600
   25 H25      -0.5289     1.8773     0.9072 H      1 <0>       0.0600
   26 H26       0.5293    -0.3651     0.8851 H      1 <0>       0.0700
   27 H27      -1.0205    -0.3814     0.0098 H      1 <0>       0.0700
   28 H28       0.1910    -0.1364    -2.1398 H      1 <0>       0.0700
   29 H29       1.7408    -0.1202    -1.2645 H      1 <0>       0.0700
   30 H30       0.3316    -2.4569    -0.5361 H      1 <0>       0.4200
   31 H31       4.3751    -1.3121    -7.6983 H      1 <0>       0.1300
   32 H32       5.3022     0.9684    -9.3620 H      1 <0>       0.1900
   33 H33       5.0642     3.4582    -8.9512 H      1 <0>       0.4500
   34 H34       2.6894     2.3235    -4.7165 H      1 <0>       0.1300
   35 H35       2.3694    -0.0055    -4.1448 H      1 <0>       0.1400
   36 H36       4.0739    -3.3201    -7.1284 H      1 <0>       0.1900
   37 H37       1.9453    -5.8072    -3.3527 H      1 <0>       0.1600
   38 H38       0.8970    -4.5960    -1.5056 H      1 <0>       0.1500
@<TRIPOS>BOND
   1    1    2 1
   2    1   23 1
   3    1   24 1
   4    1   25 1
   5    2    3 1
   6    2   26 1
   7    2   27 1
   8    3    4 1
   9    3   28 1
  10    3   29 1
  11    4    5 1
  12    4   30 1
  13    5   22 1
  14    5    6 2
  15    6    7 1
  16    7   20 1
  17    7    8 1
  18    8    9 1
  19    8   18 2
  20    9   17 ar
  21    9   10 ar
  22   10   11 ar
  23   10   31 1
  24   11   15 ar
  25   11   12 2
  26   12   13 1
  27   12   32 1
  28   13   14 1
  29   13   33 1
  30   14   15 2
  31   15   16 ar
  32   16   17 ar
  33   16   34 1
  34   17   35 1
  35   18   19 1
  36   18   36 1
  37   19   20 2
  38   20   21 1
  39   21   22 2
  40   21   37 1
  41   22   38 1
