@<TRIPOS>MOLECULE
ZINC000001863090
32    35    1     0     0
SMALL
USER_CHARGES
@<TRIPOS>ATOM
1      N1      0.0175   -1.1399   -0.0042 N.1      1 ZINC000001863090   -0.4200
2      C2      0.0021   -0.0041    0.0020 C.1      1 ZINC000001863090    0.2500
3      C3     -0.0173    1.4278    0.0099 C.ar     1 ZINC000001863090   -0.0600
4      C4     -1.2472    2.0941    0.0310 C.ar     1 ZINC000001863090   -0.0500
5      C5     -1.3399    3.4617    0.0383 C.ar     1 ZINC000001863090   -0.1300
6      C6     -0.1474    4.1854    0.0247 C.ar     1 ZINC000001863090    0.1400
7      N7      0.0996    5.5266    0.0259 N.pl3    1 ZINC000001863090   -0.5800
8      C8      1.4629    5.7498    0.0004 C.2      1 ZINC000001863090    0.1200
9      C9      2.1150    4.5614   -0.0005 C.2      1 ZINC000001863090   -0.1400
10     C10     3.6150    4.4001    0.0057 C.3      1 ZINC000001863090   -0.0600
11     C11     4.1442    5.1012    1.2323 C.2      1 ZINC000001863090    0.5300
12     O12     4.7466    4.4583    2.0660 O.2      1 ZINC000001863090   -0.5200
13     N13     3.9677    6.4074    1.4239 N.am     1 ZINC000001863090   -0.6600
14     C14     3.3302    7.3242    0.6078 C.ar     1 ZINC000001863090    0.1800
15     C15     3.9331    8.5737    0.4502 C.ar     1 ZINC000001863090   -0.1400
16     C16     3.3296    9.5571   -0.3035 C.ar     1 ZINC000001863090   -0.0800
17     C17     2.1131    9.3176   -0.9188 C.ar     1 ZINC000001863090   -0.1300
18     C18     1.5136    8.0832   -0.7964 C.ar     1 ZINC000001863090   -0.0800
19     C19     2.1213    7.0732   -0.0424 C.ar     1 ZINC000001863090   -0.0600
20     C20     1.1091    3.5206    0.0049 C.ar     1 ZINC000001863090   -0.1000
21     C21     1.1938    2.1272    0.0021 C.ar     1 ZINC000001863090    0.0000
22     H22    -2.1558    1.5103    0.0415 H        1 ZINC000001863090    0.1300
23     H23    -2.2984    3.9593    0.0537 H        1 ZINC000001863090    0.1400
24     H24    -0.5793    6.2192    0.0419 H        1 ZINC000001863090    0.4200
25     H25     3.8731    3.3418    0.0445 H        1 ZINC000001863090    0.1200
26     H26     4.0393    4.8525   -0.8906 H        1 ZINC000001863090    0.1100
27     H27     4.3359    6.7639    2.2475 H        1 ZINC000001863090    0.4100
28     H28     4.8829    8.7719    0.9245 H        1 ZINC000001863090    0.1400
29     H29     3.8082   10.5188   -0.4149 H        1 ZINC000001863090    0.1300
30     H30     1.6347   10.0969   -1.4934 H        1 ZINC000001863090    0.1300
31     H31     0.5693    7.8940   -1.2851 H        1 ZINC000001863090    0.1300
32     H32     2.1451    1.6159   -0.0082 H        1 ZINC000001863090    0.1400
@<TRIPOS>BOND
1     1     2     3
2     2     3     1
3     3     21    ar
4     3     4     ar
5     4     5     ar
6     4     22    1
7     5     6     ar
8     5     23    1
9     6     20    ar
10    6     7     1
11    7     8     1
12    7     24    1
13    8     19    1
14    8     9     2
15    9     10    1
16    9     20    1
17    10    11    1
18    10    25    1
19    10    26    1
20    11    12    2
21    11    13    am
22    13    14    1
23    13    27    1
24    14    19    ar
25    14    15    ar
26    15    16    ar
27    15    28    1
28    16    17    ar
29    16    29    1
30    17    18    ar
31    17    30    1
32    18    19    ar
33    18    31    1
34    20    21    ar
35    21    32    1
@<TRIPOS>SUBSTRUCTURE
1   ZINC000001863090 1     RESIDUE    1   A     ZIN   1
