@<TRIPOS>MOLECULE
ZINC000584905775
60    63    1     0     0
SMALL
USER_CHARGES
@<TRIPOS>ATOM
1      C1     -3.9062    5.4918   -1.1795 C.3      1 ZINC000584905775   -0.1400
2      C2     -3.0444    5.2440    0.0602 C.3      1 ZINC000584905775    0.0000
3      C3     -3.8827    5.4768    1.3188 C.3      1 ZINC000584905775   -0.1400
4      C4     -2.5420    3.8233    0.0470 C.2      1 ZINC000584905775   -0.2500
5      C5     -1.2128    3.4241    0.0321 C.2      1 ZINC000584905775    0.3400
6      N6     -0.0611    4.1118    0.0248 N.2      1 ZINC000584905775   -0.5700
7      C7      1.1031    3.4857    0.0103 C.2      1 ZINC000584905775    0.4900
8      N8      2.2800    4.2161    0.0025 N.pl3    1 ZINC000584905775   -0.7100
9      C9      2.2334    5.6803    0.0109 C.3      1 ZINC000584905775    0.1400
10     C10     3.6589    6.2360   -0.0003 C.3      1 ZINC000584905775   -0.1100
11     H11     4.2216    5.8127    0.8317 H        1 ZINC000584905775    0.1000
12     C12     4.3411    5.8692   -1.3214 C.3      1 ZINC000584905775   -0.1400
13     C13     5.7370    6.4950   -1.3592 C.3      1 ZINC000584905775   -0.0100
14     N14     5.6259    7.9547   -1.2530 N.4      1 ZINC000584905775   -0.5000
15     H15     5.0382    8.3012   -1.9964 H        1 ZINC000584905775    0.4300
16     H16     6.5432    8.3675   -1.3319 H        1 ZINC000584905775    0.4400
17     C17     5.0380    8.3165    0.0424 C.3      1 ZINC000584905775   -0.0500
18     C18     3.6152    7.7609    0.1341 C.3      1 ZINC000584905775    0.1000
19     H19     3.0077    8.1797   -0.6681 H        1 ZINC000584905775    0.0900
20     O20     3.0461    8.1124    1.3969 O.3      1 ZINC000584905775   -0.5300
21     C21     1.1500    2.0825    0.0023 C.2      1 ZINC000584905775   -0.3700
22     C22    -0.0166    1.3751    0.0096 C.2      1 ZINC000584905775    0.5100
23     N23     0.0021   -0.0041    0.0020 N.pl3    1 ZINC000584905775   -0.7100
24     C24     1.2806   -0.7192   -0.0140 C.3      1 ZINC000584905775    0.1700
25     C25     1.0253   -2.2044   -0.0196 C.ar     1 ZINC000584905775   -0.1200
26     C26     0.9253   -2.8930    1.1749 C.ar     1 ZINC000584905775   -0.1000
27     C27     0.6868   -4.2546    1.1699 C.ar     1 ZINC000584905775   -0.1200
28     C28     0.5574   -4.9292   -0.0297 C.ar     1 ZINC000584905775   -0.1000
29     C29     0.6626   -4.2415   -1.2243 C.ar     1 ZINC000584905775   -0.1200
30     C30     0.8968   -2.8792   -1.2192 C.ar     1 ZINC000584905775   -0.1000
31     N31    -1.2085    2.0542    0.0189 N.pl3    1 ZINC000584905775   -0.3600
32     N32    -2.5404    1.6245    0.0223 N.2      1 ZINC000584905775   -0.3300
33     C33    -3.3254    2.6764    0.0315 C.2      1 ZINC000584905775    0.1100
34     H34    -4.7539    4.8066   -1.1756 H        1 ZINC000584905775    0.0500
35     H35    -4.2696    6.5194   -1.1699 H        1 ZINC000584905775    0.0600
36     H36    -3.3090    5.3259   -2.0761 H        1 ZINC000584905775    0.0500
37     H37    -2.1968    5.9292    0.0564 H        1 ZINC000584905775    0.0800
38     H38    -3.2688    5.3003    2.2020 H        1 ZINC000584905775    0.0500
39     H39    -4.2461    6.5044    1.3284 H        1 ZINC000584905775    0.0600
40     H40    -4.7304    4.7916    1.3227 H        1 ZINC000584905775    0.0500
41     H41     3.1350    3.7581   -0.0085 H        1 ZINC000584905775    0.4100
42     H42     1.6995    6.0319   -0.8720 H        1 ZINC000584905775    0.0700
43     H43     1.7172    6.0223    0.9079 H        1 ZINC000584905775    0.0900
44     H44     4.4260    4.7853   -1.3986 H        1 ZINC000584905775    0.1200
45     H45     3.7494    6.2489   -2.1543 H        1 ZINC000584905775    0.1000
46     H46     6.2257    6.2356   -2.2984 H        1 ZINC000584905775    0.1400
47     H47     6.3280    6.1144   -0.5261 H        1 ZINC000584905775    0.1300
48     H48     5.0105    9.4020    0.1379 H        1 ZINC000584905775    0.1400
49     H49     5.6440    7.8968    0.8453 H        1 ZINC000584905775    0.1400
50     H50     2.9874    9.0654    1.5502 H        1 ZINC000584905775    0.4000
51     H51     2.0998    1.5685   -0.0100 H        1 ZINC000584905775    0.1500
52     H52    -0.8313   -0.5005    0.0073 H        1 ZINC000584905775    0.4200
53     H53     1.8400   -0.4434   -0.9079 H        1 ZINC000584905775    0.0800
54     H54     1.8570   -0.4529    0.8719 H        1 ZINC000584905775    0.0800
55     H55     1.0301   -2.3666    2.1121 H        1 ZINC000584905775    0.1200
56     H56     0.6043   -4.7918    2.1031 H        1 ZINC000584905775    0.1300
57     H57     0.3738   -5.9935   -0.0337 H        1 ZINC000584905775    0.1300
58     H58     0.5615   -4.7686   -2.1615 H        1 ZINC000584905775    0.1300
59     H59     0.9790   -2.3419   -2.1525 H        1 ZINC000584905775    0.1200
60     H60    -4.4051    2.6537    0.0366 H        1 ZINC000584905775    0.1900
@<TRIPOS>BOND
1     1     2     1
2     1     34    1
3     1     35    1
4     1     36    1
5     2     3     1
6     2     4     1
7     2     37    1
8     3     38    1
9     3     39    1
10    3     40    1
11    4     33    1
12    4     5     2
13    5     31    1
14    5     6     1
15    6     7     2
16    7     8     1
17    7     21    1
18    8     9     1
19    8     41    1
20    9     10    1
21    9     42    1
22    9     43    1
23    10    11    1
24    10    18    1
25    10    12    1
26    12    13    1
27    12    44    1
28    12    45    1
29    13    14    1
30    13    46    1
31    13    47    1
32    14    15    1
33    14    16    1
34    14    17    1
35    17    18    1
36    17    48    1
37    17    49    1
38    18    19    1
39    18    20    1
40    20    50    1
41    21    22    2
42    21    51    1
43    22    23    1
44    22    31    1
45    23    24    1
46    23    52    1
47    24    25    1
48    24    53    1
49    24    54    1
50    25    30    ar
51    25    26    ar
52    26    27    ar
53    26    55    1
54    27    28    ar
55    27    56    1
56    28    29    ar
57    28    57    1
58    29    30    ar
59    29    58    1
60    30    59    1
61    31    32    1
62    32    33    2
63    33    60    1
@<TRIPOS>SUBSTRUCTURE
1   ZINC000584905775 1     RESIDUE    1   A     ZIN   1
