@<TRIPOS>MOLECULE
ZINC000001608585
68    70    1     0     0
SMALL
USER_CHARGES
@<TRIPOS>ATOM
1      C1     -2.4567    1.6449    1.3762 C.3      1 ZINC000001608585   -0.1900
2      C2     -2.3758    0.1506    1.6951 C.3      1 ZINC000001608585   -0.0200
3      N3     -1.6754   -0.5450    0.6072 N.4      1 ZINC000001608585   -0.3900
4      H4     -2.1330   -0.3449   -0.2695 H        1 ZINC000001608585    0.4200
5      C5     -0.2818   -0.0841    0.5485 C.3      1 ZINC000001608585   -0.0200
6      C6      0.4049   -0.6911   -0.6766 C.3      1 ZINC000001608585   -0.1900
7      C7     -1.7023   -1.9928    0.8544 C.3      1 ZINC000001608585   -0.0200
8      C8     -3.1466   -2.4938    0.7932 C.3      1 ZINC000001608585   -0.1500
9      C9     -3.1628   -4.0191    0.9125 C.3      1 ZINC000001608585   -0.1300
10     C10    -4.6071   -4.5202    0.8513 C.3      1 ZINC000001608585    0.1600
11     H11    -5.1986   -4.0181    1.6169 H        1 ZINC000001608585    0.1000
12     C12    -4.6338   -6.0304    1.0951 C.3      1 ZINC000001608585   -0.1700
13     N13    -5.1696   -4.2287   -0.4697 N.pl3    1 ZINC000001608585   -0.7000
14     C14    -6.5384   -4.0957   -0.6250 C.ar     1 ZINC000001608585    0.6000
15     N15    -7.3244   -4.2298    0.4329 N.ar     1 ZINC000001608585   -0.5900
16     C16    -8.6396   -4.1090    0.3241 C.ar     1 ZINC000001608585    0.2600
17     C17    -9.5214   -4.2635    1.5364 C.3      1 ZINC000001608585   -0.1100
18     C18    -9.1933   -3.8394   -0.9119 C.ar     1 ZINC000001608585   -0.3200
19     C19    -8.3396   -3.7033   -2.0091 C.ar     1 ZINC000001608585    0.4600
20     N20    -8.8510   -3.4322   -3.2686 N.pl3    1 ZINC000001608585   -0.6500
21     C21    -8.0028   -3.4229   -4.3806 C.ar     1 ZINC000001608585    0.1900
22     C22    -6.9142   -4.2997   -4.4304 C.ar     1 ZINC000001608585   -0.0300
23     C23    -6.0737   -4.3116   -5.4995 C.ar     1 ZINC000001608585   -0.1300
24     C24    -6.2927   -3.4345   -6.5757 C.ar     1 ZINC000001608585    0.1500
25     N25    -5.4760   -3.4322   -7.6365 N.ar     1 ZINC000001608585   -0.5100
26     H26    -4.7254   -4.0463   -7.6562 H        1 ZINC000001608585    0.4400
27     C27    -5.6648   -2.6209   -8.6504 C.ar     1 ZINC000001608585    0.2600
28     C28    -4.7088   -2.6690   -9.8144 C.3      1 ZINC000001608585   -0.1500
29     C29    -6.7210   -1.7195   -8.6816 C.ar     1 ZINC000001608585   -0.2600
30     C30    -7.6077   -1.6649   -7.6187 C.ar     1 ZINC000001608585    0.3600
31     N31    -8.6722   -0.7752   -7.6200 N.pl3    1 ZINC000001608585   -0.8000
32     C32    -7.3931   -2.5454   -6.5307 C.ar     1 ZINC000001608585   -0.1000
33     C33    -8.2494   -2.5534   -5.4221 C.ar     1 ZINC000001608585   -0.1100
34     N34    -7.0293   -3.8321   -1.8266 N.ar     1 ZINC000001608585   -0.6300
35     H35    -2.9764    2.1610    2.1834 H        1 ZINC000001608585    0.1100
36     H36    -1.4498    2.0498    1.2749 H        1 ZINC000001608585    0.0800
37     H37    -3.0016    1.7882    0.4431 H        1 ZINC000001608585    0.0800
38     H38    -1.8309    0.0073    2.6282 H        1 ZINC000001608585    0.1300
39     H39    -3.3827   -0.2543    1.7964 H        1 ZINC000001608585    0.1300
40     H40    -0.2615    1.0033    0.4749 H        1 ZINC000001608585    0.1300
41     H41     0.2427   -0.3970    1.4513 H        1 ZINC000001608585    0.1300
42     H42     1.4553   -0.4000   -0.6858 H        1 ZINC000001608585    0.1100
43     H43     0.3293   -1.7776   -0.6344 H        1 ZINC000001608585    0.0800
44     H44    -0.0806   -0.3280   -1.5824 H        1 ZINC000001608585    0.0800
45     H45    -1.1086   -2.5021    0.0953 H        1 ZINC000001608585    0.1300
46     H46    -1.2870   -2.2008    1.8405 H        1 ZINC000001608585    0.1300
47     H47    -3.7171   -2.0591    1.6140 H        1 ZINC000001608585    0.0900
48     H48    -3.5936   -2.1989   -0.1561 H        1 ZINC000001608585    0.0800
49     H49    -2.5923   -4.4538    0.0917 H        1 ZINC000001608585    0.0800
50     H50    -2.7158   -4.3141    1.8619 H        1 ZINC000001608585    0.1000
51     H51    -4.0423   -6.5325    0.3295 H        1 ZINC000001608585    0.0600
52     H52    -4.2153   -6.2472    2.0779 H        1 ZINC000001608585    0.0700
53     H53    -5.6627   -6.3873    1.0515 H        1 ZINC000001608585    0.0700
54     H54    -4.5826   -4.1290   -1.2355 H        1 ZINC000001608585    0.4100
55     H55    -9.6567   -3.2929    2.0134 H        1 ZINC000001608585    0.0900
56     H56   -10.4913   -4.6573    1.2323 H        1 ZINC000001608585    0.0900
57     H57    -9.0541   -4.9523    2.2402 H        1 ZINC000001608585    0.0900
58     H58   -10.2622   -3.7366   -1.0276 H        1 ZINC000001608585    0.1500
59     H59    -9.7971   -3.2489   -3.3788 H        1 ZINC000001608585    0.4300
60     H60    -6.7383   -4.9768   -3.6076 H        1 ZINC000001608585    0.1600
61     H61    -5.2376   -4.9949   -5.5214 H        1 ZINC000001608585    0.1600
62     H62    -5.0687   -3.3876  -10.5507 H        1 ZINC000001608585    0.1200
63     H63    -4.6435   -1.6818  -10.2719 H        1 ZINC000001608585    0.1200
64     H64    -3.7228   -2.9723   -9.4625 H        1 ZINC000001608585    0.1000
65     H65    -6.8501   -1.0641   -9.5302 H        1 ZINC000001608585    0.1800
66     H66    -8.8047   -0.1785   -8.3732 H        1 ZINC000001608585    0.4300
67     H67    -9.2839   -0.7498   -6.8676 H        1 ZINC000001608585    0.4200
68     H68    -9.0940   -1.8815   -5.3818 H        1 ZINC000001608585    0.1500
@<TRIPOS>BOND
1     1     2     1
2     1     35    1
3     1     36    1
4     1     37    1
5     2     3     1
6     2     38    1
7     2     39    1
8     3     4     1
9     3     5     1
10    3     7     1
11    5     6     1
12    5     40    1
13    5     41    1
14    6     42    1
15    6     43    1
16    6     44    1
17    7     8     1
18    7     45    1
19    7     46    1
20    8     9     1
21    8     47    1
22    8     48    1
23    9     10    1
24    9     49    1
25    9     50    1
26    10    11    1
27    10    12    1
28    10    13    1
29    12    51    1
30    12    52    1
31    12    53    1
32    13    14    1
33    13    54    1
34    14    34    ar
35    14    15    ar
36    15    16    ar
37    16    17    1
38    16    18    ar
39    17    55    1
40    17    56    1
41    17    57    1
42    18    19    ar
43    18    58    1
44    19    20    1
45    19    34    ar
46    20    21    1
47    20    59    1
48    21    33    ar
49    21    22    ar
50    22    23    ar
51    22    60    1
52    23    24    ar
53    23    61    1
54    24    32    ar
55    24    25    ar
56    25    26    1
57    25    27    ar
58    27    28    1
59    27    29    ar
60    28    62    1
61    28    63    1
62    28    64    1
63    29    30    ar
64    29    65    1
65    30    31    1
66    30    32    ar
67    31    66    1
68    31    67    1
69    32    33    ar
70    33    68    1
@<TRIPOS>SUBSTRUCTURE
1   ZINC000001608585 1     RESIDUE    1   A     ZIN   1
