@<TRIPOS>MOLECULE
ZINC000039630575
29    30    1     0     0
SMALL
USER_CHARGES
@<TRIPOS>ATOM
1      C1      0.4441    1.3468   -0.0878 C.3      1 ZINC000039630575    0.0800
2      N2      0.3256   -0.1132   -0.0689 N.am     1 ZINC000039630575   -0.5600
3      C3     -0.9008   -0.6800   -0.0465 C.2      1 ZINC000039630575    0.5800
4      O4     -1.9056    0.0052   -0.0423 O.2      1 ZINC000039630575   -0.4900
5      C5     -0.9875   -2.1484   -0.0279 C.ar     1 ZINC000039630575   -0.3100
6      C6     -2.2125   -2.8086   -0.0049 C.ar     1 ZINC000039630575    0.1100
7      C7     -2.2025   -4.2062    0.0113 C.ar     1 ZINC000039630575   -0.3100
8      C8     -3.4664   -4.9622    0.0354 C.2      1 ZINC000039630575    0.5900
9      N9     -4.6391   -4.3105    0.1633 N.am     1 ZINC000039630575   -0.8400
10     O10    -3.4517   -6.1746   -0.0601 O.2      1 ZINC000039630575   -0.5500
11     C11    -0.9655   -4.8815    0.0036 C.ar     1 ZINC000039630575    0.5300
12     N12    -0.9459   -6.2594    0.0195 N.pl3    1 ZINC000039630575   -0.8000
13     N13     0.1783   -4.2145   -0.0189 N.ar     1 ZINC000039630575   -0.5800
14     C14     0.2111   -2.8930   -0.0342 C.ar     1 ZINC000039630575    0.4900
15     N15     1.4106   -2.2084   -0.0587 N.am     1 ZINC000039630575   -0.5300
16     C16     2.6701   -2.9565   -0.0668 C.3      1 ZINC000039630575    0.0900
17     C17     1.4369   -0.8657   -0.0796 C.2      1 ZINC000039630575    0.7100
18     O18     2.5161   -0.3067   -0.1007 O.2      1 ZINC000039630575   -0.5300
19     H19     1.4976    1.6256   -0.1094 H        1 ZINC000039630575    0.1000
20     H20    -0.0541    1.7404   -0.9739 H        1 ZINC000039630575    0.0800
21     H21    -0.0231    1.7609    0.8057 H        1 ZINC000039630575    0.0800
22     H22    -3.1418   -2.2582    0.0007 H        1 ZINC000039630575    0.1600
23     H23    -4.6509   -3.3435    0.2395 H        1 ZINC000039630575    0.4000
24     H24    -5.4715   -4.8083    0.1792 H        1 ZINC000039630575    0.4100
25     H25    -1.7760   -6.7571   -0.0458 H        1 ZINC000039630575    0.4300
26     H26    -0.1020   -6.7316    0.0959 H        1 ZINC000039630575    0.4100
27     H27     2.9686   -3.1544   -1.0963 H        1 ZINC000039630575    0.0800
28     H28     3.4438   -2.3708    0.4296 H        1 ZINC000039630575    0.0900
29     H29     2.5351   -3.9010    0.4602 H        1 ZINC000039630575    0.1000
@<TRIPOS>BOND
1     1     2     1
2     1     19    1
3     1     20    1
4     1     21    1
5     2     17    am
6     2     3     am
7     3     4     2
8     3     5     1
9     5     14    ar
10    5     6     ar
11    6     7     ar
12    6     22    1
13    7     8     1
14    7     11    ar
15    8     9     am
16    8     10    2
17    9     23    1
18    9     24    1
19    11    12    1
20    11    13    ar
21    12    25    1
22    12    26    1
23    13    14    ar
24    14    15    1
25    15    16    1
26    15    17    am
27    16    27    1
28    16    28    1
29    16    29    1
30    17    18    2
@<TRIPOS>SUBSTRUCTURE
1   ZINC000039630575 1     RESIDUE    1   A     ZIN   1
