@<TRIPOS>MOLECULE
ZINC000000003742
41    43    1     0     0
SMALL
USER_CHARGES
@<TRIPOS>ATOM
1      C1     -0.0187    1.5258    0.0104 C.3      1 ZINC000000003742   -0.1800
2      C2      0.0021   -0.0041    0.0020 C.3      1 ZINC000000003742    0.0900
3      N3     -1.3723   -0.5112    0.0124 N.pl3    1 ZINC000000003742   -0.4900
4      C4     -1.9640   -0.7340    1.1919 C.2      1 ZINC000000003742    0.1500
5      C5     -3.2573   -1.2110    1.2874 C.2      1 ZINC000000003742   -0.2800
6      C6     -3.8715   -1.4423    2.5988 C.2      1 ZINC000000003742    0.5300
7      O7     -3.2378   -1.2125    3.6206 O.co2    1 ZINC000000003742   -0.7000
8      O8     -5.0180   -1.8651    2.6717 O.co2    1 ZINC000000003742   -0.6600
9      C9     -4.0091   -1.4830    0.0500 C.2      1 ZINC000000003742    0.4100
10     O10    -5.1524   -1.9040    0.0812 O.2      1 ZINC000000003742   -0.4400
11     C11    -3.3215   -1.2244   -1.2262 C.ar     1 ZINC000000003742   -0.1800
12     C12    -3.9589   -1.4537   -2.4478 C.ar     1 ZINC000000003742   -0.0300
13     C13    -3.2969   -1.2045   -3.6166 C.ar     1 ZINC000000003742    0.0000
14     F14    -3.9127   -1.4256   -4.7985 F        1 ZINC000000003742   -0.1400
15     C15    -1.9860   -0.7216   -3.5952 C.ar     1 ZINC000000003742    0.1100
16     N16    -1.3224   -0.4712   -4.7937 N.3      1 ZINC000000003742   -0.4800
17     C17    -2.2089   -0.6979   -5.9439 C.3      1 ZINC000000003742    0.0100
18     C18    -1.4621   -0.3554   -7.2349 C.3      1 ZINC000000003742   -0.0100
19     N19    -0.2634   -1.1970   -7.3454 N.4      1 ZINC000000003742   -0.5100
20     H20    -0.5344   -2.1690   -7.3499 H        1 ZINC000000003742    0.4300
21     H21     0.2222   -0.9795   -8.2027 H        1 ZINC000000003742    0.4300
22     C22     0.6234   -0.9415   -6.2027 C.3      1 ZINC000000003742    0.0000
23     C23    -0.1060   -1.2889   -4.9031 C.3      1 ZINC000000003742    0.0200
24     C24    -1.3410   -0.4893   -2.3909 C.ar     1 ZINC000000003742   -0.1700
25     C25    -2.0034   -0.7332   -1.1939 C.ar     1 ZINC000000003742    0.2200
26     H26     1.0039    1.9031    0.0027 H        1 ZINC000000003742    0.0800
27     H27    -0.5459    1.8868   -0.8726 H        1 ZINC000000003742    0.0600
28     H28    -0.5289    1.8773    0.9072 H        1 ZINC000000003742    0.0700
29     H29     0.5123   -0.3556   -0.8948 H        1 ZINC000000003742    0.0900
30     H30     0.5293   -0.3651    0.8851 H        1 ZINC000000003742    0.1000
31     H31    -1.4125   -0.5349    2.0989 H        1 ZINC000000003742    0.1700
32     H32    -4.9721   -1.8273   -2.4683 H        1 ZINC000000003742    0.1500
33     H33    -2.5144   -1.7440   -5.9670 H        1 ZINC000000003742    0.0900
34     H34    -3.0904   -0.0631   -5.8543 H        1 ZINC000000003742    0.1400
35     H35    -2.1132   -0.5364   -8.0902 H        1 ZINC000000003742    0.1400
36     H36    -1.1688    0.6942   -7.2174 H        1 ZINC000000003742    0.1400
37     H37     1.5184   -1.5570   -6.2927 H        1 ZINC000000003742    0.1400
38     H38     0.9061    0.1111   -6.1904 H        1 ZINC000000003742    0.1400
39     H39     0.5466   -1.0853   -4.0541 H        1 ZINC000000003742    0.1300
40     H40    -0.3769   -2.3447   -4.9091 H        1 ZINC000000003742    0.0700
41     H41    -0.3276   -0.1159   -2.3826 H        1 ZINC000000003742    0.1500
@<TRIPOS>BOND
1     1     2     1
2     1     26    1
3     1     27    1
4     1     28    1
5     2     3     1
6     2     29    1
7     2     30    1
8     3     25    1
9     3     4     1
10    4     5     2
11    4     31    1
12    5     6     1
13    5     9     1
14    6     7     ar
15    6     8     ar
16    9     10    2
17    9     11    1
18    11    25    ar
19    11    12    ar
20    12    13    ar
21    12    32    1
22    13    14    1
23    13    15    ar
24    15    16    1
25    15    24    ar
26    16    23    1
27    16    17    1
28    17    18    1
29    17    33    1
30    17    34    1
31    18    19    1
32    18    35    1
33    18    36    1
34    19    20    1
35    19    21    1
36    19    22    1
37    22    23    1
38    22    37    1
39    22    38    1
40    23    39    1
41    23    40    1
42    24    25    ar
43    24    41    1
@<TRIPOS>SUBSTRUCTURE
1   ZINC000000003742 1     RESIDUE    1   A     ZIN   1
