@<TRIPOS>MOLECULE
ZINC000585091605
39    42    1     0     0
SMALL
USER_CHARGES
@<TRIPOS>ATOM
1      C1     -0.2082    1.5605   -0.5664 C.3      1 ZINC000585091605   -0.1700
2      C2     -0.2410    0.0405   -0.7378 C.3      1 ZINC000585091605    0.1200
3      N3     -1.3721   -0.5112    0.0123 N.pl3    1 ZINC000585091605   -0.7400
4      C4     -1.6080   -1.8843    0.0072 C.ar     1 ZINC000585091605    0.2400
5      C5     -0.7654   -2.7310   -0.7061 C.ar     1 ZINC000585091605   -0.2100
6      C6     -0.9966   -4.0887   -0.7132 C.ar     1 ZINC000585091605   -0.0200
7      C7     -2.0776   -4.6153   -0.0033 C.ar     1 ZINC000585091605   -0.1200
8      C8     -2.3282   -6.0730   -0.0088 C.2      1 ZINC000585091605    0.2900
9      N9     -1.3204   -6.9147   -0.1115 N.2      1 ZINC000585091605   -0.4900
10     C10    -1.5198   -8.2564   -0.1192 C.ar     1 ZINC000585091605    0.0900
11     C11    -0.4237   -9.1224   -0.2298 C.ar     1 ZINC000585091605   -0.0700
12     C12    -0.6227  -10.4844   -0.2377 C.ar     1 ZINC000585091605   -0.1200
13     C13    -1.9023  -11.0080   -0.1368 C.ar     1 ZINC000585091605   -0.1000
14     C14    -2.9935  -10.1697   -0.0276 C.ar     1 ZINC000585091605   -0.1300
15     C15    -2.8138   -8.7937   -0.0173 C.ar     1 ZINC000585091605    0.0800
16     N16    -3.9107   -7.9452    0.0928 N.pl3    1 ZINC000585091605   -0.3600
17     C17    -5.2442   -8.1713    0.2028 C.2      1 ZINC000585091605    0.0000
18     C18    -5.8865   -6.9802    0.2804 C.2      1 ZINC000585091605   -0.1700
19     C19    -4.9238   -5.9669    0.2171 C.2      1 ZINC000585091605   -0.1400
20     C20    -3.6963   -6.5820    0.1060 C.2      1 ZINC000585091605   -0.0300
21     C21    -2.9214   -3.7632    0.7121 C.ar     1 ZINC000585091605   -0.0400
22     C22    -2.6825   -2.4068    0.7200 C.ar     1 ZINC000585091605   -0.2000
23     H23     0.6333    1.9709   -1.1245 H        1 ZINC000585091605    0.0700
24     H24    -1.1372    1.9887   -0.9426 H        1 ZINC000585091605    0.0600
25     H25    -0.0972    1.8047    0.4901 H        1 ZINC000585091605    0.0600
26     H26    -0.3520   -0.2037   -1.7943 H        1 ZINC000585091605    0.0600
27     H27     0.6880   -0.3878   -0.3615 H        1 ZINC000585091605    0.0600
28     H28    -1.9566    0.0795    0.5126 H        1 ZINC000585091605    0.4000
29     H29     0.0705   -2.3231   -1.2550 H        1 ZINC000585091605    0.1300
30     H30    -0.3426   -4.7454   -1.2677 H        1 ZINC000585091605    0.1300
31     H31     0.5760   -8.7216   -0.3091 H        1 ZINC000585091605    0.1400
32     H32     0.2238  -11.1496   -0.3233 H        1 ZINC000585091605    0.1400
33     H33    -2.0464  -12.0784   -0.1441 H        1 ZINC000585091605    0.1400
34     H34    -3.9875  -10.5848    0.0502 H        1 ZINC000585091605    0.1300
35     H35    -5.7168   -9.1421    0.2245 H        1 ZINC000585091605    0.1700
36     H36    -6.9530   -6.8383    0.3742 H        1 ZINC000585091605    0.1500
37     H37    -5.1080   -4.9034    0.2530 H        1 ZINC000585091605    0.1500
38     H38    -3.7585   -4.1678    1.2617 H        1 ZINC000585091605    0.1300
39     H39    -3.3346   -1.7474    1.2735 H        1 ZINC000585091605    0.1300
@<TRIPOS>BOND
1     1     2     1
2     1     23    1
3     1     24    1
4     1     25    1
5     2     3     1
6     2     26    1
7     2     27    1
8     3     4     1
9     3     28    1
10    4     22    ar
11    4     5     ar
12    5     6     ar
13    5     29    1
14    6     7     ar
15    6     30    1
16    7     8     1
17    7     21    ar
18    8     20    1
19    8     9     2
20    9     10    1
21    10    15    ar
22    10    11    ar
23    11    12    ar
24    11    31    1
25    12    13    ar
26    12    32    1
27    13    14    ar
28    13    33    1
29    14    15    ar
30    14    34    1
31    15    16    1
32    16    20    1
33    16    17    1
34    17    18    2
35    17    35    1
36    18    19    1
37    18    36    1
38    19    20    2
39    19    37    1
40    21    22    ar
41    21    38    1
42    22    39    1
@<TRIPOS>SUBSTRUCTURE
1   ZINC000585091605 1     RESIDUE    1   A     ZIN   1
