@<TRIPOS>MOLECULE
ZINC000003954336
33    35    1     0     0
SMALL
USER_CHARGES
@<TRIPOS>ATOM
1      O1      0.0021   -0.0041    0.0020 O.co2    1 ZINC000003954336   -0.7000
2      C2     -0.0145    1.2150    0.0087 C.2      1 ZINC000003954336    0.5000
3      O3      1.0330    1.8389    0.0021 O.co2    1 ZINC000003954336   -0.7000
4      C4     -1.3296    1.9507    0.0190 C.3      1 ZINC000003954336   -0.1800
5      C5     -2.4790    0.9408    0.0189 C.3      1 ZINC000003954336   -0.0800
6      C6     -3.7941    1.6764    0.0292 C.2      1 ZINC000003954336    0.1600
7      C7     -4.4805    1.9366   -1.1671 C.2      1 ZINC000003954336   -0.2500
8      C8     -3.9503    1.5130   -2.4022 C.2      1 ZINC000003954336   -0.0100
9      C9     -4.6244    1.7702   -3.5543 C.2      1 ZINC000003954336   -0.2400
10     C10    -5.8458    2.4556   -3.5247 C.2      1 ZINC000003954336    0.3000
11     O11    -6.5016    2.7032   -4.6757 O.2      1 ZINC000003954336   -0.6600
12     C12    -6.3884    2.8830   -2.3141 C.2      1 ZINC000003954336   -0.0500
13     O13    -7.5764    3.5476   -2.2954 O.3      1 ZINC000003954336   -0.4800
14     C14    -5.7145    2.6294   -1.1282 C.2      1 ZINC000003954336    0.1700
15     O15    -6.2335    3.0390    0.0482 O.3      1 ZINC000003954336   -0.2000
16     C16    -5.5982    2.8046    1.2156 C.ar     1 ZINC000003954336    0.2000
17     C17    -6.1541    3.2363    2.4113 C.ar     1 ZINC000003954336   -0.0900
18     O18    -7.3437    3.8984    2.4112 O.3      1 ZINC000003954336   -0.4700
19     C19    -5.4916    2.9898    3.6125 C.ar     1 ZINC000003954336    0.3300
20     O20    -6.0330    3.4098    4.7729 O.3      1 ZINC000003954336   -0.6300
21     C21    -4.2676    2.3086    3.6230 C.ar     1 ZINC000003954336   -0.2400
22     C22    -3.7079    1.8787    2.4611 C.ar     1 ZINC000003954336    0.0000
23     C23    -4.3636    2.1121    1.2357 C.ar     1 ZINC000003954336   -0.2600
24     H24    -1.3917    2.5717    0.9126 H        1 ZINC000003954336    0.0700
25     H25    -1.4001    2.5813   -0.8673 H        1 ZINC000003954336    0.0600
26     H26    -2.4169    0.3198   -0.8748 H        1 ZINC000003954336    0.0900
27     H27    -2.4085    0.3101    0.9052 H        1 ZINC000003954336    0.0900
28     H28    -3.0088    0.9847   -2.4335 H        1 ZINC000003954336    0.1400
29     H29    -4.2153    1.4443   -4.4991 H        1 ZINC000003954336    0.1300
30     H30    -7.9689    3.6764   -3.1697 H        1 ZINC000003954336    0.3900
31     H31    -8.1153    3.3209    2.4898 H        1 ZINC000003954336    0.3600
32     H32    -3.7649    2.1239    4.5608 H        1 ZINC000003954336    0.1300
33     H33    -2.7638    1.3545    2.4776 H        1 ZINC000003954336    0.1400
@<TRIPOS>BOND
1     1     2     ar
2     2     3     ar
3     2     4     1
4     4     5     1
5     4     24    1
6     4     25    1
7     5     6     1
8     5     26    1
9     5     27    1
10    6     23    1
11    6     7     2
12    7     14    1
13    7     8     1
14    8     9     2
15    8     28    1
16    9     10    1
17    9     29    1
18    10    11    2
19    10    12    1
20    12    13    1
21    12    14    2
22    13    30    1
23    14    15    1
24    15    16    1
25    16    23    ar
26    16    17    ar
27    17    18    1
28    17    19    ar
29    18    31    1
30    19    20    1
31    19    21    ar
32    21    22    ar
33    21    32    1
34    22    23    ar
35    22    33    1
@<TRIPOS>SUBSTRUCTURE
1   ZINC000003954336 1     RESIDUE    1   A     ZIN   1
