@<TRIPOS>MOLECULE
ZINC000036382102
76    80    1     0     0
SMALL
USER_CHARGES
@<TRIPOS>ATOM
1      C1     -0.0173    1.4248    0.0099 C.3      1 ZINC000036382102    0.0200
2      O2      0.0021   -0.0041    0.0020 O.3      1 ZINC000036382102   -0.2900
3      C3      0.6056   -0.6069   -1.0553 C.ar     1 ZINC000036382102    0.1800
4      C4      0.6514   -2.0058   -1.1224 C.ar     1 ZINC000036382102    0.1200
5      O5      0.0914   -2.7455   -0.1277 O.3      1 ZINC000036382102   -0.2900
6      C6      0.1703   -4.1668   -0.2530 C.3      1 ZINC000036382102    0.0200
7      C7      1.2517   -2.6349   -2.1758 C.ar     1 ZINC000036382102   -0.1500
8      C8      1.8286   -1.8749   -3.2005 C.ar     1 ZINC000036382102   -0.2000
9      C9      1.7866   -0.4603   -3.1393 C.ar     1 ZINC000036382102    0.2200
10     C10     1.1612    0.1636   -2.0533 C.ar     1 ZINC000036382102   -0.2000
11     N11     2.3459    0.2466   -4.1345 N.ar     1 ZINC000036382102   -0.5700
12     C12     2.9227   -0.3690   -5.1483 C.ar     1 ZINC000036382102    0.5300
13     N13     3.4880    0.3957   -6.1537 N.3      1 ZINC000036382102   -0.4600
14     C14     2.9209    0.0621   -7.4381 C.3      1 ZINC000036382102    0.0400
15     C15     3.9538    0.1058   -8.5820 C.3      1 ZINC000036382102   -0.1300
16     C16     4.8983    1.3179   -8.4643 C.3      1 ZINC000036382102   -0.0200
17     N17     4.1934    2.5132   -8.0671 N.4      1 ZINC000036382102   -0.3800
18     H18     3.2216    2.4384   -8.3283 H        1 ZINC000036382102    0.4200
19     C19     4.7940    3.6836   -8.7208 C.3      1 ZINC000036382102   -0.0500
20     C20     4.3066    2.6468   -6.6017 C.3      1 ZINC000036382102    0.0000
21     C21     3.3239    1.8444   -5.8763 C.3      1 ZINC000036382102    0.0300
22     N22     2.9839   -1.6942   -5.2443 N.ar     1 ZINC000036382102   -0.6000
23     C23     2.4616   -2.4797   -4.3137 C.ar     1 ZINC000036382102    0.5000
24     N24     2.5322   -3.8526   -4.4266 N.pl3    1 ZINC000036382102   -0.7000
25     C25     3.1908   -4.4593   -5.5861 C.3      1 ZINC000036382102    0.1500
26     C26     4.6965   -4.5598   -5.3253 C.3      1 ZINC000036382102   -0.1600
27     C27     5.3670   -5.2659   -6.5056 C.3      1 ZINC000036382102    0.0000
28     N28     4.8044   -6.6130   -6.6584 N.4      1 ZINC000036382102   -0.3800
29     H29     4.9226   -7.1254   -5.7972 H        1 ZINC000036382102    0.4200
30     C30     5.5037   -7.3140   -7.7435 C.3      1 ZINC000036382102    0.0500
31     C31     4.8477   -8.6493   -7.9837 C.ar     1 ZINC000036382102   -0.1700
32     C32     5.2776   -9.7653   -7.2903 C.ar     1 ZINC000036382102   -0.0900
33     C33     4.6759  -10.9901   -7.5106 C.ar     1 ZINC000036382102   -0.1100
34     C34     3.6440  -11.0990   -8.4239 C.ar     1 ZINC000036382102   -0.0800
35     C35     3.2135   -9.9829   -9.1166 C.ar     1 ZINC000036382102   -0.1100
36     C36     3.8123   -8.7572   -8.8932 C.ar     1 ZINC000036382102   -0.1000
37     C37     3.3750   -6.5224   -6.9797 C.3      1 ZINC000036382102   -0.0100
38     C38     2.6279   -5.8646   -5.8176 C.3      1 ZINC000036382102   -0.1600
39     H39     1.0053    1.8021    0.0021 H        1 ZINC000036382102    0.0600
40     H40    -0.5445    1.7859   -0.8732 H        1 ZINC000036382102    0.0600
41     H41    -0.5275    1.7763    0.9067 H        1 ZINC000036382102    0.1100
42     H42    -0.3133   -4.6346    0.6045 H        1 ZINC000036382102    0.1100
43     H43    -0.3318   -4.4793   -1.1686 H        1 ZINC000036382102    0.0600
44     H44     1.2165   -4.4707   -0.2905 H        1 ZINC000036382102    0.0600
45     H45     1.2816   -3.7136   -2.2179 H        1 ZINC000036382102    0.1400
46     H46     1.1219    1.2413   -1.9940 H        1 ZINC000036382102    0.1600
47     H47     2.4982   -0.9413   -7.3852 H        1 ZINC000036382102    0.1100
48     H48     2.1197    0.7665   -7.6617 H        1 ZINC000036382102    0.0600
49     H49     4.5467   -0.8086   -8.5589 H        1 ZINC000036382102    0.1100
50     H50     3.4258    0.1595   -9.5340 H        1 ZINC000036382102    0.1000
51     H51     5.6678    1.0974   -7.7244 H        1 ZINC000036382102    0.1300
52     H52     5.3750    1.4912   -9.4290 H        1 ZINC000036382102    0.1300
53     H53     4.7287    3.5688   -9.8028 H        1 ZINC000036382102    0.1300
54     H54     4.2586    4.5835   -8.4180 H        1 ZINC000036382102    0.1300
55     H55     5.8402    3.7670   -8.4267 H        1 ZINC000036382102    0.1200
56     H56     5.3062    2.3364   -6.2975 H        1 ZINC000036382102    0.1400
57     H57     4.1706    3.6945   -6.3336 H        1 ZINC000036382102    0.1400
58     H58     2.3222    2.1527   -6.1757 H        1 ZINC000036382102    0.0800
59     H59     3.4432    2.0175   -4.8068 H        1 ZINC000036382102    0.1500
60     H60     2.1457   -4.4164   -3.7383 H        1 ZINC000036382102    0.4200
61     H61     3.0128   -3.8454   -6.4690 H        1 ZINC000036382102    0.1100
62     H62     5.1143   -3.5592   -5.2147 H        1 ZINC000036382102    0.1200
63     H63     4.8706   -5.1305   -4.4131 H        1 ZINC000036382102    0.0900
64     H64     5.1925   -4.6943   -7.4172 H        1 ZINC000036382102    0.1300
65     H65     6.4392   -5.3390   -6.3233 H        1 ZINC000036382102    0.1400
66     H66     5.4543   -6.7161   -8.6535 H        1 ZINC000036382102    0.1400
67     H67     6.5465   -7.4663   -7.4649 H        1 ZINC000036382102    0.1400
68     H68     6.0839   -9.6803   -6.5767 H        1 ZINC000036382102    0.1300
69     H69     5.0123  -11.8621   -6.9694 H        1 ZINC000036382102    0.1400
70     H70     3.1743  -12.0561   -8.5965 H        1 ZINC000036382102    0.1400
71     H71     2.4075  -10.0680   -9.8304 H        1 ZINC000036382102    0.1400
72     H72     3.4760   -7.8851   -9.4343 H        1 ZINC000036382102    0.1300
73     H73     3.2430   -5.9240   -7.8811 H        1 ZINC000036382102    0.1300
74     H74     2.9766   -7.5230   -7.1473 H        1 ZINC000036382102    0.1400
75     H75     2.7590   -6.4623   -4.9156 H        1 ZINC000036382102    0.1000
76     H76     1.5671   -5.7965   -6.0589 H        1 ZINC000036382102    0.1200
@<TRIPOS>BOND
1     1     2     1
2     1     39    1
3     1     40    1
4     1     41    1
5     2     3     1
6     3     10    ar
7     3     4     ar
8     4     5     1
9     4     7     ar
10    5     6     1
11    6     42    1
12    6     43    1
13    6     44    1
14    7     8     ar
15    7     45    1
16    8     23    ar
17    8     9     ar
18    9     10    ar
19    9     11    ar
20    10    46    1
21    11    12    ar
22    12    13    1
23    12    22    ar
24    13    21    1
25    13    14    1
26    14    15    1
27    14    47    1
28    14    48    1
29    15    16    1
30    15    49    1
31    15    50    1
32    16    17    1
33    16    51    1
34    16    52    1
35    17    18    1
36    17    19    1
37    17    20    1
38    19    53    1
39    19    54    1
40    19    55    1
41    20    21    1
42    20    56    1
43    20    57    1
44    21    58    1
45    21    59    1
46    22    23    ar
47    23    24    1
48    24    25    1
49    24    60    1
50    25    38    1
51    25    26    1
52    25    61    1
53    26    27    1
54    26    62    1
55    26    63    1
56    27    28    1
57    27    64    1
58    27    65    1
59    28    29    1
60    28    30    1
61    28    37    1
62    30    31    1
63    30    66    1
64    30    67    1
65    31    36    ar
66    31    32    ar
67    32    33    ar
68    32    68    1
69    33    34    ar
70    33    69    1
71    34    35    ar
72    34    70    1
73    35    36    ar
74    35    71    1
75    36    72    1
76    37    38    1
77    37    73    1
78    37    74    1
79    38    75    1
80    38    76    1
@<TRIPOS>SUBSTRUCTURE
1   ZINC000036382102 1     RESIDUE    1   A     ZIN   1
