@<TRIPOS>MOLECULE
ZINC000001534964
80    84    1     0     0
SMALL
USER_CHARGES
@<TRIPOS>ATOM
1      C1     -0.1171    1.8375    0.2511 C.3      1 ZINC000001534964   -0.1400
2      C2     -0.1217    0.3068    0.2118 C.3      1 ZINC000001534964   -0.0500
3      C3     -1.5965   -0.1502    0.3030 C.3      1 ZINC000001534964   -0.1400
4      C4      0.4222   -0.1654   -1.1325 C.3      1 ZINC000001534964   -0.1000
5      C5      1.9392   -0.0514   -1.1896 C.3      1 ZINC000001534964   -0.0800
6      C6      2.5784   -0.8650   -0.0661 C.3      1 ZINC000001534964   -0.1100
7      C7      2.1679   -2.3174   -0.1991 C.2      1 ZINC000001534964    0.5100
8      O8      2.4470   -2.9397   -1.2097 O.co2    1 ZINC000001534964   -0.7000
9      O9      1.5584   -2.8638    0.7044 O.co2    1 ZINC000001534964   -0.6900
10     C10     4.1023   -0.7929   -0.2023 C.3      1 ZINC000001534964   -0.1000
11     C11     4.5602    0.6609   -0.0776 C.3      1 ZINC000001534964   -0.1100
12     C12     4.2388    1.1940    1.3117 C.3      1 ZINC000001534964    0.0000
13     C13     5.0495    0.3745    2.3266 C.3      1 ZINC000001534964   -0.1500
14     C14     2.7892    0.9734    1.6589 C.2      1 ZINC000001534964   -0.0700
15     C15     2.0951    1.8647    2.3121 C.2      1 ZINC000001534964   -0.2000
16     C16     2.5998    3.2155    2.7381 C.3      1 ZINC000001534964   -0.0700
17     C17     4.1274    3.2089    2.7660 C.3      1 ZINC000001534964   -0.0600
18     H18     4.4282    2.5081    3.5722 H        1 ZINC000001534964    0.0600
19     C19     4.6749    4.5772    3.1710 C.3      1 ZINC000001534964   -0.0300
20     C20     4.0571    5.6920    2.3325 C.3      1 ZINC000001534964   -0.1500
21     C21     4.2871    4.8274    4.6400 C.3      1 ZINC000001534964   -0.1100
22     C22     4.8851    6.1507    5.1047 C.3      1 ZINC000001534964   -0.1500
23     C23     6.4049    6.1036    5.0450 C.3      1 ZINC000001534964    0.1200
24     H24     6.7988    7.0951    5.3064 H        1 ZINC000001534964    0.0400
25     O25     6.8934    5.1565    6.0021 O.3      1 ZINC000001534964   -0.5600
26     C26     6.9256    5.7289    3.6585 C.3      1 ZINC000001534964   -0.0400
27     C27     6.8977    6.9517    2.7413 C.3      1 ZINC000001534964   -0.1500
28     C28     8.4114    5.3319    3.8413 C.3      1 ZINC000001534964   -0.1400
29     C29     6.1936    4.5428    3.0709 C.3      1 ZINC000001534964   -0.0600
30     H30     6.5187    3.6481    3.6588 H        1 ZINC000001534964    0.0600
31     C31     6.5949    4.2530    1.6244 C.3      1 ZINC000001534964   -0.1200
32     C32     6.1609    2.8103    1.3137 C.3      1 ZINC000001534964   -0.1100
33     C33     4.6481    2.6639    1.4440 C.3      1 ZINC000001534964   -0.0200
34     C34     3.9970    3.4118    0.2674 C.3      1 ZINC000001534964   -0.1600
35     C35     2.1297   -0.3362    1.2883 C.3      1 ZINC000001534964   -0.0100
36     H36     2.4729   -1.0807    2.0466 H        1 ZINC000001534964    0.0700
37     C37     0.6181   -0.2886    1.3935 C.3      1 ZINC000001534964   -0.1000
38     H38     0.9111    2.1984    0.2283 H        1 ZINC000001534964    0.0600
39     H39    -0.6574    2.2248   -0.6127 H        1 ZINC000001534964    0.0400
40     H40    -0.6019    2.1789    1.1658 H        1 ZINC000001534964    0.0400
41     H41    -2.1556    0.2561   -0.5398 H        1 ZINC000001534964    0.0400
42     H42    -1.6417   -1.2390    0.2780 H        1 ZINC000001534964    0.0600
43     H43    -2.0315    0.2101    1.2352 H        1 ZINC000001534964    0.0400
44     H44     0.0986   -1.1866   -1.3310 H        1 ZINC000001534964    0.0600
45     H45    -0.0046    0.4745   -1.9195 H        1 ZINC000001534964    0.0400
46     H46     2.2950   -0.4241   -2.1543 H        1 ZINC000001534964    0.0500
47     H47     2.2325    0.9963   -1.0978 H        1 ZINC000001534964    0.0500
48     H48     4.5779   -1.4260    0.5372 H        1 ZINC000001534964    0.0500
49     H49     4.3815   -1.1597   -1.1987 H        1 ZINC000001534964    0.0600
50     H50     5.6408    0.7078   -0.2449 H        1 ZINC000001534964    0.0500
51     H51     4.0635    1.2323   -0.8599 H        1 ZINC000001534964    0.0700
52     H52     6.1132    0.4844    2.1155 H        1 ZINC000001534964    0.0500
53     H53     4.8400    0.7339    3.3341 H        1 ZINC000001534964    0.0500
54     H54     4.7708   -0.6765    2.2504 H        1 ZINC000001534964    0.0600
55     H55     1.0876    1.6231    2.6131 H        1 ZINC000001534964    0.1000
56     H56     2.1995    3.9668    2.0649 H        1 ZINC000001534964    0.0700
57     H57     2.2228    3.4174    3.7472 H        1 ZINC000001534964    0.0500
58     H58     2.9714    5.5958    2.3434 H        1 ZINC000001534964    0.0600
59     H59     4.3403    6.6590    2.7483 H        1 ZINC000001534964    0.0500
60     H60     4.4181    5.6178    1.3067 H        1 ZINC000001534964    0.0600
61     H61     3.1995    4.8736    4.7119 H        1 ZINC000001534964    0.0600
62     H62     4.6575    4.0098    5.2550 H        1 ZINC000001534964    0.0700
63     H63     4.5016    6.9835    4.5196 H        1 ZINC000001534964    0.0700
64     H64     4.5783    6.3203    6.1481 H        1 ZINC000001534964    0.0500
65     H65     6.6507    5.3600    6.9158 H        1 ZINC000001534964    0.3700
66     H66     7.6145    7.6908    3.0992 H        1 ZINC000001534964    0.0500
67     H67     7.1612    6.6513    1.7272 H        1 ZINC000001534964    0.0600
68     H68     5.8974    7.3848    2.7436 H        1 ZINC000001534964    0.0600
69     H69     8.4800    4.4862    4.5255 H        1 ZINC000001534964    0.0700
70     H70     8.8345    5.0536    2.8761 H        1 ZINC000001534964    0.0500
71     H71     8.9654    6.1765    4.2510 H        1 ZINC000001534964    0.0500
72     H72     6.1317    4.9376    0.9273 H        1 ZINC000001534964    0.0700
73     H73     7.6798    4.3097    1.5134 H        1 ZINC000001534964    0.0600
74     H74     6.4609    2.5745    0.2901 H        1 ZINC000001534964    0.0600
75     H75     6.6976    2.1577    1.9959 H        1 ZINC000001534964    0.0600
76     H76     4.2488    2.9094   -0.6665 H        1 ZINC000001534964    0.0600
77     H77     2.9146    3.4190    0.3958 H        1 ZINC000001534964    0.0600
78     H78     4.3664    4.4370    0.2396 H        1 ZINC000001534964    0.0500
79     H79     0.3188    0.2234    2.3140 H        1 ZINC000001534964    0.0400
80     H80     0.2565   -1.3280    1.5323 H        1 ZINC000001534964    0.0800
@<TRIPOS>BOND
1     1     2     1
2     1     38    1
3     1     39    1
4     1     40    1
5     2     37    1
6     2     3     1
7     2     4     1
8     3     41    1
9     3     42    1
10    3     43    1
11    4     5     1
12    4     44    1
13    4     45    1
14    5     6     1
15    5     46    1
16    5     47    1
17    6     35    1
18    6     7     1
19    6     10    1
20    7     8     ar
21    7     9     ar
22    10    11    1
23    10    48    1
24    10    49    1
25    11    12    1
26    11    50    1
27    11    51    1
28    12    33    1
29    12    13    1
30    12    14    1
31    13    52    1
32    13    53    1
33    13    54    1
34    14    15    2
35    14    35    1
36    15    16    1
37    15    55    1
38    16    17    1
39    16    56    1
40    16    57    1
41    17    18    1
42    17    33    1
43    17    19    1
44    19    29    1
45    19    20    1
46    19    21    1
47    20    58    1
48    20    59    1
49    20    60    1
50    21    22    1
51    21    61    1
52    21    62    1
53    22    23    1
54    22    63    1
55    22    64    1
56    23    24    1
57    23    25    1
58    23    26    1
59    25    65    1
60    26    27    1
61    26    28    1
62    26    29    1
63    27    66    1
64    27    67    1
65    27    68    1
66    28    69    1
67    28    70    1
68    28    71    1
69    29    30    1
70    29    31    1
71    31    32    1
72    31    72    1
73    31    73    1
74    32    33    1
75    32    74    1
76    32    75    1
77    33    34    1
78    34    76    1
79    34    77    1
80    34    78    1
81    35    36    1
82    35    37    1
83    37    79    1
84    37    80    1
@<TRIPOS>SUBSTRUCTURE
1   ZINC000001534964 1     RESIDUE    1   A     ZIN   1
