@<TRIPOS>MOLECULE
ZINC000020148998
50    54    1     0     0
SMALL
USER_CHARGES
@<TRIPOS>ATOM
1      O1      0.2755    0.4888    1.6326 O.2      1 ZINC000020148998   -0.5200
2      C2      0.1609    1.6706    1.3672 C.2      1 ZINC000020148998    0.5900
3      N3      1.2133    2.3567    0.8791 N.am     1 ZINC000020148998   -0.6600
4      C4      2.4776    1.7572    0.8293 C.ar     1 ZINC000020148998    0.1900
5      C5      2.5895    0.3884    0.6258 C.ar     1 ZINC000020148998   -0.1300
6      C6      3.8368   -0.2035    0.5771 C.ar     1 ZINC000020148998   -0.0700
7      C7      4.9780    0.5687    0.7310 C.ar     1 ZINC000020148998    0.0200
8      O8      6.2054   -0.0149    0.6825 O.3      1 ZINC000020148998   -0.2400
9      C9      6.8058   -0.3340    1.8565 C.ar     1 ZINC000020148998    0.2100
10     C10     8.1233   -0.8128    1.8880 C.ar     1 ZINC000020148998   -0.1800
11     C11     9.1345   -1.0905    0.8670 C.2      1 ZINC000020148998   -0.1700
12     C12    10.2235   -1.5402    1.5100 C.2      1 ZINC000020148998    0.0500
13     N13     9.9874   -1.5713    2.8592 N.pl3    1 ZINC000020148998   -0.5800
14     C14     8.7125   -1.1328    3.1236 C.ar     1 ZINC000020148998    0.3200
15     N15     8.0195   -0.9793    4.2460 N.ar     1 ZINC000020148998   -0.5200
16     C16     6.7811   -0.5312    4.2416 C.ar     1 ZINC000020148998    0.1800
17     C17     6.1362   -0.1911    3.0655 C.ar     1 ZINC000020148998   -0.2800
18     C18     4.8678    1.9391    0.9344 C.ar     1 ZINC000020148998    0.1200
19     F19     5.9798    2.6916    1.0843 F        1 ZINC000020148998   -0.1200
20     C20     3.6203    2.5327    0.9779 C.ar     1 ZINC000020148998   -0.1700
21     C21    -1.1274    2.3489    1.5734 C.2      1 ZINC000020148998   -0.2800
22     C22    -2.1618    1.7134    2.2583 C.2      1 ZINC000020148998    0.0800
23     C23    -3.3697    2.3878    2.4346 C.2      1 ZINC000020148998   -0.2300
24     C24    -3.5270    3.6437    1.9435 C.2      1 ZINC000020148998    0.1700
25     N25    -2.5251    4.2678    1.2763 N.am     1 ZINC000020148998   -0.4400
26     C26    -2.7268    5.5639    0.7849 C.ar     1 ZINC000020148998    0.0800
27     C27    -2.8478    6.6305    1.6659 C.ar     1 ZINC000020148998   -0.0700
28     C28    -3.0462    7.9075    1.1793 C.ar     1 ZINC000020148998   -0.1400
29     C29    -3.1246    8.1250   -0.1862 C.ar     1 ZINC000020148998    0.1200
30     F30    -3.3187    9.3751   -0.6602 F        1 ZINC000020148998   -0.1300
31     C31    -3.0038    7.0626   -1.0665 C.ar     1 ZINC000020148998   -0.1400
32     C32    -2.8005    5.7847   -0.5842 C.ar     1 ZINC000020148998   -0.0600
33     C33    -1.3372    3.6636    1.0838 C.2      1 ZINC000020148998    0.5400
34     O34    -0.4482    4.2408    0.4818 O.2      1 ZINC000020148998   -0.5300
35     H35     1.0947    3.2658    0.5622 H        1 ZINC000020148998    0.4300
36     H36     1.7011   -0.2139    0.5058 H        1 ZINC000020148998    0.1600
37     H37     3.9230   -1.2684    0.4194 H        1 ZINC000020148998    0.1500
38     H38     9.0252   -0.9593   -0.1994 H        1 ZINC000020148998    0.1500
39     H39    11.1477   -1.8342    1.0348 H        1 ZINC000020148998    0.1800
40     H40    10.6264   -1.8605    3.5292 H        1 ZINC000020148998    0.4200
41     H41     6.2569   -0.4232    5.1797 H        1 ZINC000020148998    0.1700
42     H42     5.1202    0.1744    3.0865 H        1 ZINC000020148998    0.1400
43     H43     3.5339    3.5976    1.1359 H        1 ZINC000020148998    0.1500
44     H44    -2.0300    0.7141    2.6461 H        1 ZINC000020148998    0.1600
45     H45    -4.1817    1.9100    2.9626 H        1 ZINC000020148998    0.1600
46     H46    -4.4676    4.1549    2.0865 H        1 ZINC000020148998    0.1800
47     H47    -2.7871    6.4613    2.7308 H        1 ZINC000020148998    0.1400
48     H48    -3.1406    8.7373    1.8642 H        1 ZINC000020148998    0.1500
49     H49    -3.0652    7.2342   -2.1310 H        1 ZINC000020148998    0.1500
50     H50    -2.7063    4.9566   -1.2710 H        1 ZINC000020148998    0.1400
@<TRIPOS>BOND
1     1     2     2
2     2     3     am
3     2     21    1
4     3     4     1
5     3     35    1
6     4     20    ar
7     4     5     ar
8     5     6     ar
9     5     36    1
10    6     7     ar
11    6     37    1
12    7     8     1
13    7     18    ar
14    8     9     1
15    9     17    ar
16    9     10    ar
17    10    14    ar
18    10    11    1
19    11    12    2
20    11    38    1
21    12    13    1
22    12    39    1
23    13    14    1
24    13    40    1
25    14    15    ar
26    15    16    ar
27    16    17    ar
28    16    41    1
29    17    42    1
30    18    19    1
31    18    20    ar
32    20    43    1
33    21    33    1
34    21    22    2
35    22    23    1
36    22    44    1
37    23    24    2
38    23    45    1
39    24    25    1
40    24    46    1
41    25    26    1
42    25    33    am
43    26    32    ar
44    26    27    ar
45    27    28    ar
46    27    47    1
47    28    29    ar
48    28    48    1
49    29    30    1
50    29    31    ar
51    31    32    ar
52    31    49    1
53    32    50    1
54    33    34    2
@<TRIPOS>SUBSTRUCTURE
1   ZINC000020148998 1     RESIDUE    1   A     ZIN   1
