@<TRIPOS>MOLECULE
ZINC000071317068
33    35    1     0     0
SMALL
USER_CHARGES
@<TRIPOS>ATOM
1      N1      0.2564    0.9778   -0.1913 N.pl3    1 ZINC000071317068   -0.8000
2      C2      0.3100   -0.3992   -0.0451 C.2      1 ZINC000071317068    0.4900
3      C3     -0.8152   -1.2023   -0.0217 C.2      1 ZINC000071317068   -0.4600
4      C4     -2.1490   -0.7670   -0.1383 C.2      1 ZINC000071317068    0.4900
5      O5     -2.4003    0.4257   -0.1721 O.2      1 ZINC000071317068   -0.4800
6      C6     -3.2453   -1.7564   -0.2198 C.ar     1 ZINC000071317068   -0.1800
7      C7     -4.0667   -1.9853    0.8850 C.ar     1 ZINC000071317068   -0.0600
8      C8     -5.0878   -2.9089    0.8025 C.ar     1 ZINC000071317068   -0.1300
9      C9     -5.3001   -3.6092   -0.3722 C.ar     1 ZINC000071317068   -0.0800
10     C10    -4.4914   -3.3892   -1.4720 C.ar     1 ZINC000071317068   -0.1500
11     C11    -3.4674   -2.4626   -1.4058 C.ar     1 ZINC000071317068    0.1300
12     F12    -2.6777   -2.2475   -2.4806 F        1 ZINC000071317068   -0.1300
13     S13    -0.2795   -2.8685    0.1804 S.3      1 ZINC000071317068    0.1900
14     C14     1.3507   -2.3578    0.2144 C.2      1 ZINC000071317068    0.3500
15     N15     2.4308   -3.1998    0.3597 N.pl3    1 ZINC000071317068   -0.6100
16     C16     3.7180   -2.6697    0.4900 C.ar     1 ZINC000071317068    0.1000
17     C17     3.9074   -1.3965    1.0219 C.ar     1 ZINC000071317068   -0.0800
18     C18     5.2018   -0.9150    1.1313 C.ar     1 ZINC000071317068   -0.1500
19     C19     6.2545   -1.7069    0.7125 C.ar     1 ZINC000071317068    0.0800
20     N20     6.0417   -2.9086    0.2124 N.ar     1 ZINC000071317068   -0.4600
21     C21     4.8274   -3.4073    0.0960 C.ar     1 ZINC000071317068    0.0800
22     N22     1.4340   -1.0655    0.0787 N.2      1 ZINC000071317068   -0.5800
23     H23     1.0761    1.4963   -0.2054 H        1 ZINC000071317068    0.4100
24     H24    -0.6005    1.4228   -0.2835 H        1 ZINC000071317068    0.4300
25     H25    -3.9030   -1.4405    1.8030 H        1 ZINC000071317068    0.1400
26     H26    -5.7233   -3.0865    1.6574 H        1 ZINC000071317068    0.1400
27     H27    -6.1011   -4.3313   -0.4301 H        1 ZINC000071317068    0.1400
28     H28    -4.6624   -3.9394   -2.3855 H        1 ZINC000071317068    0.1400
29     H29     2.2986   -4.1607    0.3717 H        1 ZINC000071317068    0.4300
30     H30     3.0660   -0.7993    1.3410 H        1 ZINC000071317068    0.1500
31     H31     5.3862    0.0680    1.5388 H        1 ZINC000071317068    0.1400
32     H32     7.2655   -1.3362    0.7956 H        1 ZINC000071317068    0.1600
33     H33     4.6927   -4.3956   -0.3181 H        1 ZINC000071317068    0.1600
@<TRIPOS>BOND
1     1     2     1
2     1     23    1
3     1     24    1
4     2     22    1
5     2     3     2
6     3     4     1
7     3     13    1
8     4     5     2
9     4     6     1
10    6     11    ar
11    6     7     ar
12    7     8     ar
13    7     25    1
14    8     9     ar
15    8     26    1
16    9     10    ar
17    9     27    1
18    10    11    ar
19    10    28    1
20    11    12    1
21    13    14    1
22    14    15    1
23    14    22    2
24    15    16    1
25    15    29    1
26    16    21    ar
27    16    17    ar
28    17    18    ar
29    17    30    1
30    18    19    ar
31    18    31    1
32    19    20    ar
33    19    32    1
34    20    21    ar
35    21    33    1
@<TRIPOS>SUBSTRUCTURE
1   ZINC000071317068 1     RESIDUE    1   A     ZIN   1
