@<TRIPOS>MOLECULE
ZINC000014946007
  36   38    0    0    0
SMALL
USER_CHARGES
NO_NAME
@<TRIPOS>ATOM
    1 C1       -0.6223     1.2326     0.3099 C.3    1 <0>       0.0300
    2 O2       -0.4010    -0.1759     0.2143 O.3    1 <0>      -0.3100
    3 C3       -1.4993    -0.9749     0.2274 C.ar   1 <0>       0.1500
    4 C4       -2.7633    -0.4177     0.3242 C.ar   1 <0>      -0.2100
    5 C5       -3.8807    -1.2320     0.3379 C.ar   1 <0>      -0.0700
    6 C6       -3.7455    -2.6071     0.2548 C.ar   1 <0>      -0.1600
    7 C7       -2.4935    -3.1782     0.1574 C.ar   1 <0>      -0.0500
    8 C8       -1.3582    -2.3665     0.1372 C.ar   1 <0>      -0.0500
    9 C9       -0.0142    -2.9717     0.0331 C.2    1 <0>      -0.1600
   10 C10       0.5599    -3.5076    -1.0904 C.2    1 <0>       0.1700
   11 N11      -0.0018    -3.5885    -2.3482 N.pl3  1 <0>      -0.6300
   12 C12      -0.1491    -4.8313    -2.9687 C.ar   1 <0>       0.0400
   13 C13       0.1256    -5.9970    -2.2640 C.ar   1 <0>      -0.0800
   14 C14      -0.0203    -7.2259    -2.8785 C.ar   1 <0>      -0.1400
   15 Cl15      0.3228    -8.6824    -1.9984 Cl     1 <0>      -0.0900
   16 C16      -0.4417    -7.2962    -4.1993 C.ar   1 <0>       0.2700
   17 O17      -0.5859    -8.5064    -4.8032 O.3    1 <0>      -0.6800
   18 C18      -0.7163    -6.1322    -4.9039 C.ar   1 <0>      -0.1400
   19 Cl19     -1.2437    -6.2215    -6.5554 Cl     1 <0>      -0.0900
   20 C20      -0.5759    -4.9027    -4.2892 C.ar   1 <0>      -0.0900
   21 C21       1.9034    -3.9817    -0.6856 C.2    1 <0>       0.5400
   22 O22       2.7159    -4.5174    -1.4119 O.2    1 <0>      -0.4400
   23 N23       2.0714    -3.7178     0.6220 N.am   1 <0>      -0.6900
   24 C24       0.9777    -3.1128     1.1166 C.2    1 <0>       0.5800
   25 O25       0.8273    -2.7506     2.2665 O.2    1 <0>      -0.4700
   26 H26       0.3351     1.7531     0.2881 H      1 <0>       0.1000
   27 H27      -1.2342     1.5621    -0.5298 H      1 <0>       0.0600
   28 H28      -1.1367     1.4570     1.2443 H      1 <0>       0.0600
   29 H29      -2.8765     0.6544     0.3893 H      1 <0>       0.1300
   30 H30      -4.8644    -0.7928     0.4142 H      1 <0>       0.1200
   31 H31      -4.6238    -3.2356     0.2666 H      1 <0>       0.1300
   32 H32      -2.3922    -4.2515     0.0932 H      1 <0>       0.1300
   33 H33      -0.2943    -2.7823    -2.8015 H      1 <0>       0.4100
   34 H34       0.4535    -5.9425    -1.2364 H      1 <0>       0.1000
   35 H35      -0.7899    -3.9972    -4.8374 H      1 <0>       0.1100
   36 H36       2.8681    -3.9293     1.1332 H      1 <0>       0.4200
@<TRIPOS>BOND
   1    1    2 1
   2    1   26 1
   3    1   27 1
   4    1   28 1
   5    2    3 1
   6    3    8 ar
   7    3    4 ar
   8    4    5 ar
   9    4   29 1
  10    5    6 ar
  11    5   30 1
  12    6    7 ar
  13    6   31 1
  14    7    8 ar
  15    7   32 1
  16    8    9 1
  17    9   24 1
  18    9   10 2
  19   10   11 1
  20   10   21 1
  21   11   12 1
  22   11   33 1
  23   12   20 ar
  24   12   13 ar
  25   13   14 ar
  26   13   34 1
  27   14   15 1
  28   14   16 ar
  29   16   17 1
  30   16   18 ar
  31   18   19 1
  32   18   20 ar
  33   20   35 1
  34   21   22 2
  35   21   23 am
  36   23   24 am
  37   23   36 1
  38   24   25 2
