@<TRIPOS>MOLECULE
ZINC000045386294
  40   43    0    0    0
SMALL
USER_CHARGES
NO_NAME
@<TRIPOS>ATOM
    1 N1       -0.0162     1.3436     0.0094 N.am   1 <0>      -0.8500
    2 C2        0.0021    -0.0041     0.0020 C.2    1 <0>       0.5600
    3 O3        1.0631    -0.5976    -0.0113 O.2    1 <0>      -0.5400
    4 C4       -1.2665    -0.7597     0.0101 C.ar   1 <0>      -0.1400
    5 C5       -2.4864    -0.0779     0.0196 C.ar   1 <0>      -0.0800
    6 C6       -3.6681    -0.7830     0.0272 C.ar   1 <0>      -0.1300
    7 C7       -3.6487    -2.1786     0.0258 C.ar   1 <0>       0.0000
    8 C8       -4.9213    -2.9367     0.0339 C.ar   1 <0>      -0.1700
    9 C9       -5.1382    -3.9646    -0.8816 C.ar   1 <0>      -0.0100
   10 C10      -6.3574    -4.6496    -0.8319 C.ar   1 <0>      -0.1200
   11 C11      -6.6375    -5.7481    -1.7797 C.2    1 <0>      -0.1500
   12 C12      -7.7817    -6.4659    -1.8176 C.2    1 <0>       0.0500
   13 O13      -8.8556    -6.2665    -0.9731 O.3    1 <0>      -0.2900
   14 C14     -10.0807    -6.8624    -1.4199 C.3    1 <0>       0.0200
   15 C15      -9.8060    -8.3008    -1.8702 C.3    1 <0>       0.0200
   16 O16      -8.8995    -8.2822    -2.9807 O.3    1 <0>      -0.2900
   17 C17      -7.8033    -7.4579    -2.8105 C.2    1 <0>       0.0600
   18 C18      -6.6895    -7.5229    -3.5512 C.2    1 <0>      -0.2400
   19 S19      -5.5350    -6.3077    -3.0273 S.3    1 <0>       0.1900
   20 C20      -7.3051    -4.2826     0.1244 C.ar   1 <0>       0.1900
   21 N21      -7.0660    -3.3043     0.9748 N.ar   1 <0>      -0.5400
   22 C22      -5.9249    -2.6342     0.9676 C.ar   1 <0>       0.4300
   23 N23      -5.7232    -1.6129     1.8851 N.pl3  1 <0>      -0.8400
   24 C24      -2.4308    -2.8604     0.0162 C.ar   1 <0>      -0.1200
   25 C25      -1.2480    -2.1570     0.0024 C.ar   1 <0>      -0.0500
   26 H26       0.8172     1.8399     0.0041 H      1 <0>       0.4100
   27 H27      -0.8627     1.8171     0.0160 H      1 <0>       0.4000
   28 H28      -2.5016     1.0020     0.0214 H      1 <0>       0.1300
   29 H29      -4.6110    -0.2562     0.0345 H      1 <0>       0.1300
   30 H30      -4.3853    -4.2256    -1.6105 H      1 <0>       0.1400
   31 H31     -10.8022    -6.8681    -0.6028 H      1 <0>       0.1300
   32 H32     -10.4808    -6.2891    -2.2562 H      1 <0>       0.0800
   33 H33      -9.3625    -8.8616    -1.0474 H      1 <0>       0.0800
   34 H34     -10.7412    -8.7730    -2.1714 H      1 <0>       0.1200
   35 H35      -6.5261    -8.2209    -4.3590 H      1 <0>       0.1800
   36 H36      -8.2481    -4.8072     0.1681 H      1 <0>       0.1800
   37 H37      -6.4166    -1.3936     2.5270 H      1 <0>       0.4100
   38 H38      -4.8888    -1.1182     1.8846 H      1 <0>       0.4100
   39 H39      -2.4167    -3.9403     0.0155 H      1 <0>       0.1300
   40 H40      -0.3058    -2.6848    -0.0053 H      1 <0>       0.1400
@<TRIPOS>BOND
   1    1    2 am
   2    1   26 1
   3    1   27 1
   4    2    3 2
   5    2    4 1
   6    4   25 ar
   7    4    5 ar
   8    5    6 ar
   9    5   28 1
  10    6    7 ar
  11    6   29 1
  12    7    8 1
  13    7   24 ar
  14    8   22 ar
  15    8    9 ar
  16    9   10 ar
  17    9   30 1
  18   10   11 1
  19   10   20 ar
  20   11   19 1
  21   11   12 2
  22   12   17 1
  23   12   13 1
  24   13   14 1
  25   14   15 1
  26   14   31 1
  27   14   32 1
  28   15   16 1
  29   15   33 1
  30   15   34 1
  31   16   17 1
  32   17   18 2
  33   18   19 1
  34   18   35 1
  35   20   21 ar
  36   20   36 1
  37   21   22 ar
  38   22   23 1
  39   23   37 1
  40   23   38 1
  41   24   25 ar
  42   24   39 1
  43   25   40 1
