@<TRIPOS>MOLECULE
ZINC000003015164
39    42    1     0     0
SMALL
USER_CHARGES
@<TRIPOS>ATOM
1      O1      0.0021   -0.0041    0.0020 O.2      1 ZINC000003015164   -0.4300
2      C2     -0.0144    1.2084    0.0087 C.2      1 ZINC000003015164    0.3900
3      C3      1.2803    1.9796    0.0005 C.3      1 ZINC000003015164    0.0500
4      N4      2.4066    1.0429   -0.0153 N.am     1 ZINC000003015164   -0.5300
5      C5      2.9335    0.6004    1.1554 C.2      1 ZINC000003015164    0.3900
6      N6      3.9324   -0.2305    1.1883 N.2      1 ZINC000003015164   -0.5000
7      C7      4.5016   -0.6995    0.0557 C.2      1 ZINC000003015164    0.0700
8      C8      4.0143   -0.2894   -1.1770 C.2      1 ZINC000003015164   -0.2200
9      C9      4.7340   -0.8825   -2.2956 C.2      1 ZINC000003015164   -0.0300
10     C10     5.7206   -1.7036   -1.9280 C.2      1 ZINC000003015164   -0.2000
11     C11     6.6226   -2.4471   -2.8975 C.3      1 ZINC000003015164   -0.0400
12     C12     5.9719   -2.4379   -4.2828 C.3      1 ZINC000003015164   -0.1200
13     C13     5.5649   -1.0031   -4.6320 C.3      1 ZINC000003015164   -0.1200
14     C14     4.3868   -0.5878   -3.7491 C.3      1 ZINC000003015164   -0.0600
15     S15     5.8404   -1.8119   -0.1799 S.3      1 ZINC000003015164    0.2000
16     C16     2.9107    0.6207   -1.1915 C.2      1 ZINC000003015164    0.5600
17     O17     2.4417    1.0130   -2.2460 O.2      1 ZINC000003015164   -0.5200
18     C18    -1.2981    1.9265    0.0187 C.ar     1 ZINC000003015164   -0.1700
19     C19    -1.3209    3.3253    0.0205 C.ar     1 ZINC000003015164   -0.0600
20     C20    -2.5274    3.9914    0.0294 C.ar     1 ZINC000003015164   -0.1200
21     C21    -3.7158    3.2790    0.0370 C.ar     1 ZINC000003015164    0.0000
22     Cl22   -5.2309    4.1264    0.0482 Cl       1 ZINC000003015164   -0.0500
23     C23    -3.7009    1.8934    0.0352 C.ar     1 ZINC000003015164   -0.1200
24     C24    -2.5020    1.2139    0.0205 C.ar     1 ZINC000003015164   -0.0400
25     H25     1.3211    2.6118   -0.8866 H        1 ZINC000003015164    0.1400
26     H26     1.3381    2.6022    0.8933 H        1 ZINC000003015164    0.1400
27     H27     2.5106    0.9493    2.0859 H        1 ZINC000003015164    0.2100
28     H28     7.5928   -1.9527   -2.9462 H        1 ZINC000003015164    0.0800
29     H29     6.7511   -3.4759   -2.5611 H        1 ZINC000003015164    0.0800
30     H30     6.6832   -2.8056   -5.0224 H        1 ZINC000003015164    0.0700
31     H31     5.0884   -3.0762   -4.2753 H        1 ZINC000003015164    0.0700
32     H32     6.4061   -0.3327   -4.4561 H        1 ZINC000003015164    0.0700
33     H33     5.2703   -0.9528   -5.6802 H        1 ZINC000003015164    0.0700
34     H34     3.4996   -1.1531   -4.0343 H        1 ZINC000003015164    0.0800
35     H35     4.1975    0.4787   -3.8706 H        1 ZINC000003015164    0.0900
36     H36    -0.3953    3.8818    0.0154 H        1 ZINC000003015164    0.1400
37     H37    -2.5466    5.0712    0.0309 H        1 ZINC000003015164    0.1400
38     H38    -4.6311    1.3446    0.0415 H        1 ZINC000003015164    0.1400
39     H39    -2.4918    0.1340    0.0191 H        1 ZINC000003015164    0.1400
@<TRIPOS>BOND
1     1     2     2
2     2     3     1
3     2     18    1
4     3     4     1
5     3     25    1
6     3     26    1
7     4     16    am
8     4     5     1
9     5     6     2
10    5     27    1
11    6     7     1
12    7     15    1
13    7     8     2
14    8     9     1
15    8     16    1
16    9     14    1
17    9     10    2
18    10    11    1
19    10    15    1
20    11    12    1
21    11    28    1
22    11    29    1
23    12    13    1
24    12    30    1
25    12    31    1
26    13    14    1
27    13    32    1
28    13    33    1
29    14    34    1
30    14    35    1
31    16    17    2
32    18    24    ar
33    18    19    ar
34    19    20    ar
35    19    36    1
36    20    21    ar
37    20    37    1
38    21    22    1
39    21    23    ar
40    23    24    ar
41    23    38    1
42    24    39    1
@<TRIPOS>SUBSTRUCTURE
1   ZINC000003015164 1     RESIDUE    1   A     ZIN   1
