@<TRIPOS>MOLECULE
ZINC000016697102
68    71    1     0     0
SMALL
USER_CHARGES
@<TRIPOS>ATOM
1      C1      1.1245   -2.3271    0.2032 C.3      1 ZINC000016697102   -0.1900
2      C2      0.5055   -1.8481   -1.1114 C.3      1 ZINC000016697102   -0.0200
3      N3      0.4974   -0.3794   -1.1424 N.4      1 ZINC000016697102   -0.3800
4      H4      0.0340   -0.0282   -0.3177 H        1 ZINC000016697102    0.4300
5      C5     -0.2182    0.0812   -2.3398 C.3      1 ZINC000016697102   -0.0100
6      C6     -1.6889   -0.3298   -2.2446 C.3      1 ZINC000016697102    0.0500
7      O7     -2.3044    0.3528   -1.1505 O.3      1 ZINC000016697102   -0.5800
8      C8      1.8794    0.1173   -1.1765 C.3      1 ZINC000016697102   -0.0100
9      C9      1.8760    1.6431   -1.0632 C.3      1 ZINC000016697102   -0.1500
10     C10     3.3162    2.1508   -0.9699 C.3      1 ZINC000016697102    0.0600
11     O11     3.3130    3.5759   -0.8641 O.3      1 ZINC000016697102   -0.3100
12     C12     4.5207    4.1900   -0.7718 C.ar     1 ZINC000016697102    0.1700
13     C13     5.6886    3.4232   -0.7896 C.ar     1 ZINC000016697102   -0.2100
14     C14     6.9130    4.0136   -0.6986 C.ar     1 ZINC000016697102   -0.0200
15     C15     7.0056    5.4056   -0.5862 C.ar     1 ZINC000016697102   -0.2200
16     C16     5.8269    6.1922   -0.5678 C.ar     1 ZINC000016697102    0.2300
17     C17     4.5807    5.5637   -0.6674 C.ar     1 ZINC000016697102   -0.1500
18     N18     5.9425    7.5250   -0.4596 N.ar     1 ZINC000016697102   -0.5500
19     C19     7.1258    8.0850   -0.3730 C.ar     1 ZINC000016697102    0.3600
20     N20     8.2529    7.3917   -0.3860 N.ar     1 ZINC000016697102   -0.5800
21     C21     8.2523    6.0688   -0.4892 C.ar     1 ZINC000016697102    0.4900
22     N22     9.4349    5.3589   -0.5011 N.pl3    1 ZINC000016697102   -0.6000
23     C23    10.6580    6.0341   -0.4035 C.2      1 ZINC000016697102    0.3000
24     N24    11.8474    5.4794   -0.4088 N.2      1 ZINC000016697102   -0.3100
25     N25    12.8038    6.4960   -0.2921 N.pl3    1 ZINC000016697102   -0.4600
26     C26    12.1530    7.6760   -0.2167 C.2      1 ZINC000016697102    0.1100
27     C27    12.7916    9.0345   -0.0825 C.3      1 ZINC000016697102   -0.0800
28     C28    12.9410    9.6563   -1.4471 C.2      1 ZINC000016697102    0.5100
29     O29    12.5659    9.0555   -2.4317 O.2      1 ZINC000016697102   -0.5000
30     N30    13.4914   10.8800   -1.5735 N.am     1 ZINC000016697102   -0.6700
31     C31    13.5315   11.5032   -2.8255 C.ar     1 ZINC000016697102    0.1700
32     C32    14.6110   12.3066   -3.1684 C.ar     1 ZINC000016697102   -0.1500
33     C33    14.6489   12.9212   -4.4050 C.ar     1 ZINC000016697102   -0.0700
34     C34    13.6132   12.7382   -5.3020 C.ar     1 ZINC000016697102   -0.1700
35     C35    12.5341   11.9380   -4.9638 C.ar     1 ZINC000016697102    0.1200
36     F36    11.5233   11.7609   -5.8425 F        1 ZINC000016697102   -0.1400
37     C37    12.4945   11.3150   -3.7296 C.ar     1 ZINC000016697102   -0.1600
38     C38    10.8264    7.4235   -0.2890 C.2      1 ZINC000016697102   -0.2400
39     H39     2.1740   -2.0346    0.2384 H        1 ZINC000016697102    0.0800
40     H40     0.5932   -1.8753    1.0409 H        1 ZINC000016697102    0.0800
41     H41     1.0475   -3.4125    0.2669 H        1 ZINC000016697102    0.1100
42     H42     1.0926   -2.2259   -1.9484 H        1 ZINC000016697102    0.1300
43     H43    -0.5167   -2.2187   -1.1879 H        1 ZINC000016697102    0.1300
44     H44    -0.1481    1.1667   -2.4099 H        1 ZINC000016697102    0.1400
45     H45     0.2285   -0.3698   -3.2259 H        1 ZINC000016697102    0.1400
46     H46    -2.2002   -0.0670   -3.1707 H        1 ZINC000016697102    0.1000
47     H47    -1.7559   -1.4060   -2.0854 H        1 ZINC000016697102    0.0700
48     H48    -3.2400    0.1399   -1.0302 H        1 ZINC000016697102    0.4100
49     H49     2.4389   -0.3077   -0.3431 H        1 ZINC000016697102    0.1400
50     H50     2.3479   -0.1762   -2.1159 H        1 ZINC000016697102    0.1300
51     H51     1.3959    2.0716   -1.9429 H        1 ZINC000016697102    0.1000
52     H52     1.3275    1.9398   -0.1692 H        1 ZINC000016697102    0.1000
53     H53     3.7963    1.7222   -0.0901 H        1 ZINC000016697102    0.0800
54     H54     3.8647    1.8541   -1.8639 H        1 ZINC000016697102    0.0800
55     H55     5.6199    2.3488   -0.8762 H        1 ZINC000016697102    0.1400
56     H56     7.8085    3.4100   -0.7127 H        1 ZINC000016697102    0.1300
57     H57     3.6731    6.1490   -0.6548 H        1 ZINC000016697102    0.1500
58     H58     7.1826    9.1601   -0.2874 H        1 ZINC000016697102    0.2000
59     H59     9.4194    4.3920   -0.5771 H        1 ZINC000016697102    0.4300
60     H60    13.7658    6.3734   -0.2691 H        1 ZINC000016697102    0.4400
61     H61    12.1633    9.6714    0.5401 H        1 ZINC000016697102    0.1300
62     H62    13.7736    8.9304    0.3788 H        1 ZINC000016697102    0.1100
63     H63    13.8599   11.3286   -0.7964 H        1 ZINC000016697102    0.4200
64     H64    15.4206   12.4511   -2.4684 H        1 ZINC000016697102    0.1300
65     H65    15.4887   13.5459   -4.6712 H        1 ZINC000016697102    0.1400
66     H66    13.6452   13.2202   -6.2679 H        1 ZINC000016697102    0.1400
67     H67    11.6534   10.6911   -3.4655 H        1 ZINC000016697102    0.1500
68     H68    10.0364    8.1593   -0.2570 H        1 ZINC000016697102    0.1900
@<TRIPOS>BOND
1     1     2     1
2     1     39    1
3     1     40    1
4     1     41    1
5     2     3     1
6     2     42    1
7     2     43    1
8     3     4     1
9     3     5     1
10    3     8     1
11    5     6     1
12    5     44    1
13    5     45    1
14    6     7     1
15    6     46    1
16    6     47    1
17    7     48    1
18    8     9     1
19    8     49    1
20    8     50    1
21    9     10    1
22    9     51    1
23    9     52    1
24    10    11    1
25    10    53    1
26    10    54    1
27    11    12    1
28    12    17    ar
29    12    13    ar
30    13    14    ar
31    13    55    1
32    14    15    ar
33    14    56    1
34    15    21    ar
35    15    16    ar
36    16    17    ar
37    16    18    ar
38    17    57    1
39    18    19    ar
40    19    20    ar
41    19    58    1
42    20    21    ar
43    21    22    1
44    22    23    1
45    22    59    1
46    23    38    1
47    23    24    2
48    24    25    1
49    25    26    1
50    25    60    1
51    26    27    1
52    26    38    2
53    27    28    1
54    27    61    1
55    27    62    1
56    28    29    2
57    28    30    am
58    30    31    1
59    30    63    1
60    31    37    ar
61    31    32    ar
62    32    33    ar
63    32    64    1
64    33    34    ar
65    33    65    1
66    34    35    ar
67    34    66    1
68    35    36    1
69    35    37    ar
70    37    67    1
71    38    68    1
@<TRIPOS>SUBSTRUCTURE
1   ZINC000016697102 1     RESIDUE    1   A     ZIN   1
