@<TRIPOS>MOLECULE
ZINC000001540228
  51   54    0    0    0
SMALL
USER_CHARGES
NO_NAME
@<TRIPOS>ATOM
    1 C1        0.6872     1.4464    -0.4266 C.3    1 <0>      -0.0900
    2 C2        0.3305     0.0027    -0.1826 C.2    1 <0>      -0.1000
    3 C3        0.2323    -0.9943    -1.1127 C.2    1 <0>       0.0500
    4 C4        0.4574    -0.8671    -2.5696 C.ar   1 <0>      -0.0200
    5 C5       -0.2330     0.0982    -3.3031 C.ar   1 <0>      -0.0800
    6 C6       -0.0191     0.2121    -4.6612 C.ar   1 <0>      -0.1100
    7 C7        0.8786    -0.6292    -5.2964 C.ar   1 <0>      -0.0200
    8 Cl8       1.1431    -0.4797    -7.0056 Cl     1 <0>      -0.0600
    9 C9        1.5665    -1.5890    -4.5734 C.ar   1 <0>      -0.1000
   10 C10       1.3650    -1.7083    -3.2139 C.ar   1 <0>      -0.0800
   11 N11      -0.1137    -2.1308    -0.4379 N.pl3  1 <0>      -0.2300
   12 C12      -0.3157    -3.3855    -1.0268 C.ar   1 <0>       0.1400
   13 C13      -1.1221    -3.5046    -2.1506 C.ar   1 <0>      -0.0800
   14 C14      -1.3198    -4.7430    -2.7295 C.ar   1 <0>      -0.0900
   15 C15      -0.7156    -5.8651    -2.1904 C.ar   1 <0>      -0.0100
   16 Cl16     -0.9671    -7.4198    -2.9207 Cl     1 <0>      -0.0400
   17 C17       0.0893    -5.7502    -1.0703 C.ar   1 <0>      -0.0900
   18 C18       0.2953    -4.5130    -0.4904 C.ar   1 <0>      -0.0100
   19 Cl19      1.3050    -4.3690     0.9145 Cl     1 <0>      -0.0200
   20 N20      -0.2263    -1.8783     0.8165 N.2    1 <0>      -0.2300
   21 C21       0.0330    -0.6071     1.0556 C.2    1 <0>       0.0000
   22 C22       0.0071     0.0579     2.3742 C.2    1 <0>       0.6200
   23 O23       0.2673     1.2422     2.4629 O.2    1 <0>      -0.5000
   24 N24      -0.3049    -0.6482     3.4790 N.am   1 <0>      -0.5700
   25 N25      -0.4249    -0.0146     4.6832 N.3    1 <0>      -0.2900
   26 C26       0.6669    -0.3945     5.5888 C.3    1 <0>       0.0400
   27 C27       0.5834     0.4401     6.8689 C.3    1 <0>      -0.1100
   28 C28      -0.7706     0.1990     7.5421 C.3    1 <0>      -0.1300
   29 C29      -1.8904     0.5566     6.5610 C.3    1 <0>      -0.1100
   30 C30      -1.7353    -0.2814     5.2899 C.3    1 <0>       0.0400
   31 H31       1.7679     1.5705    -0.3564 H      1 <0>       0.0700
   32 H32       0.3516     1.7406    -1.4210 H      1 <0>       0.0700
   33 H33       0.2003     2.0724     0.3212 H      1 <0>       0.0900
   34 H34      -0.9337     0.7547    -2.8088 H      1 <0>       0.1400
   35 H35      -0.5532     0.9588    -5.2301 H      1 <0>       0.1400
   36 H36       2.2653    -2.2428    -5.0741 H      1 <0>       0.1400
   37 H37       1.9021    -2.4573    -2.6510 H      1 <0>       0.1300
   38 H38      -1.5947    -2.6296    -2.5718 H      1 <0>       0.1500
   39 H39      -1.9470    -4.8358    -3.6038 H      1 <0>       0.1600
   40 H40       0.5597    -6.6276    -0.6516 H      1 <0>       0.1600
   41 H41      -0.4442    -1.6062     3.4190 H      1 <0>       0.3900
   42 H42       0.5802    -1.4520     5.8385 H      1 <0>       0.0400
   43 H43       1.6240    -0.2143     5.0995 H      1 <0>       0.0800
   44 H44       1.3845     0.1469     7.5473 H      1 <0>       0.0700
   45 H45       0.6838     1.4969     6.6214 H      1 <0>       0.0800
   46 H46      -0.8552    -0.8503     7.8248 H      1 <0>       0.0600
   47 H47      -0.8517     0.8244     8.4312 H      1 <0>       0.0700
   48 H48      -2.8568     0.3467     7.0196 H      1 <0>       0.0700
   49 H49      -1.8290     1.6152     6.3088 H      1 <0>       0.0800
   50 H50      -2.5228    -0.0189     4.5835 H      1 <0>       0.0800
   51 H51      -1.8106    -1.3394     5.5410 H      1 <0>       0.0400
@<TRIPOS>BOND
   1    1    2 1
   2    1   31 1
   3    1   32 1
   4    1   33 1
   5    2   21 1
   6    2    3 2
   7    3    4 1
   8    3   11 1
   9    4   10 ar
  10    4    5 ar
  11    5    6 ar
  12    5   34 1
  13    6    7 ar
  14    6   35 1
  15    7    8 1
  16    7    9 ar
  17    9   10 ar
  18    9   36 1
  19   10   37 1
  20   11   12 1
  21   11   20 1
  22   12   18 ar
  23   12   13 ar
  24   13   14 ar
  25   13   38 1
  26   14   15 ar
  27   14   39 1
  28   15   16 1
  29   15   17 ar
  30   17   18 ar
  31   17   40 1
  32   18   19 1
  33   20   21 2
  34   21   22 1
  35   22   23 2
  36   22   24 am
  37   24   25 1
  38   24   41 1
  39   25   30 1
  40   25   26 1
  41   26   27 1
  42   26   42 1
  43   26   43 1
  44   27   28 1
  45   27   44 1
  46   27   45 1
  47   28   29 1
  48   28   46 1
  49   28   47 1
  50   29   30 1
  51   29   48 1
  52   29   49 1
  53   30   50 1
  54   30   51 1
