@<TRIPOS>MOLECULE
ZINC000000047553
34    35    1     0     0
SMALL
USER_CHARGES
@<TRIPOS>ATOM
1      O1      0.0021   -0.0041    0.0020 O.2      1 ZINC000000047553   -0.4400
2      C2     -0.0144    1.2096    0.0087 C.2      1 ZINC000000047553    0.4000
3      C3      1.2803    1.9808    0.0005 C.3      1 ZINC000000047553   -0.1500
4      C4      2.4566    1.0025   -0.0160 C.3      1 ZINC000000047553   -0.0800
5      C5      3.7513    1.7736   -0.0242 C.ar     1 ZINC000000047553   -0.0900
6      C6      4.3298    2.1382   -1.2260 C.ar     1 ZINC000000047553   -0.1000
7      C7      5.5166    2.8452   -1.2362 C.ar     1 ZINC000000047553   -0.1400
8      C8      6.1277    3.1897   -0.0393 C.ar     1 ZINC000000047553    0.1000
9      O9      7.2951    3.8855   -0.0467 O.3      1 ZINC000000047553   -0.5000
10     C10     5.5450    2.8231    1.1651 C.ar     1 ZINC000000047553   -0.1400
11     C11     4.3556    2.1204    1.1700 C.ar     1 ZINC000000047553   -0.1000
12     C12    -1.2898    1.9230    0.0186 C.ar     1 ZINC000000047553   -0.2400
13     C13    -1.3141    3.3304    0.0206 C.ar     1 ZINC000000047553    0.1900
14     O14    -0.1530    4.0309    0.0127 O.3      1 ZINC000000047553   -0.4800
15     C15    -2.5253    3.9958    0.0300 C.ar     1 ZINC000000047553   -0.2000
16     C16    -3.7162    3.2803    0.0376 C.ar     1 ZINC000000047553    0.1800
17     O17    -4.9003    3.9426    0.0469 O.3      1 ZINC000000047553   -0.4900
18     C18    -3.7027    1.8910    0.0353 C.ar     1 ZINC000000047553   -0.2000
19     C19    -2.5018    1.2072    0.0205 C.ar     1 ZINC000000047553    0.2000
20     O20    -2.4910   -0.1489    0.0182 O.3      1 ZINC000000047553   -0.4700
21     H21     1.3211    2.6129   -0.8866 H        1 ZINC000000047553    0.0900
22     H22     1.3381    2.6034    0.8933 H        1 ZINC000000047553    0.1100
23     H23     2.4158    0.3703    0.8710 H        1 ZINC000000047553    0.0800
24     H24     2.3988    0.3799   -0.9088 H        1 ZINC000000047553    0.0800
25     H25     3.8536    1.8697   -2.1574 H        1 ZINC000000047553    0.1300
26     H26     5.9685    3.1291   -2.1751 H        1 ZINC000000047553    0.1300
27     H27     7.1807    4.8457   -0.0364 H        1 ZINC000000047553    0.3900
28     H28     6.0190    3.0899    2.0982 H        1 ZINC000000047553    0.1300
29     H29     3.9014    1.8351    2.1074 H        1 ZINC000000047553    0.1300
30     H30     0.1772    4.2352   -0.8729 H        1 ZINC000000047553    0.4000
31     H31    -2.5461    5.0756    0.0319 H        1 ZINC000000047553    0.1500
32     H32    -5.2498    4.1358   -0.8338 H        1 ZINC000000047553    0.4000
33     H33    -4.6337    1.3436    0.0409 H        1 ZINC000000047553    0.1500
34     H34    -2.4980   -0.5408   -0.8658 H        1 ZINC000000047553    0.4000
@<TRIPOS>BOND
1     1     2     2
2     2     3     1
3     2     12    1
4     3     4     1
5     3     21    1
6     3     22    1
7     4     5     1
8     4     23    1
9     4     24    1
10    5     11    ar
11    5     6     ar
12    6     7     ar
13    6     25    1
14    7     8     ar
15    7     26    1
16    8     9     1
17    8     10    ar
18    9     27    1
19    10    11    ar
20    10    28    1
21    11    29    1
22    12    19    ar
23    12    13    ar
24    13    14    1
25    13    15    ar
26    14    30    1
27    15    16    ar
28    15    31    1
29    16    17    1
30    16    18    ar
31    17    32    1
32    18    19    ar
33    18    33    1
34    19    20    1
35    20    34    1
@<TRIPOS>SUBSTRUCTURE
1   ZINC000000047553 1     RESIDUE    1   A     ZIN   1
