@<TRIPOS>MOLECULE
ZINC000103229253
46    48    1     0     0
SMALL
USER_CHARGES
@<TRIPOS>ATOM
1      C1     -0.0188    1.4266   -0.0668 C.3      1 ZINC000103229253    0.0200
2      O2      0.0014   -0.0022   -0.0578 O.3      1 ZINC000103229253   -0.3000
3      C3     -1.2012   -0.6365   -0.0266 C.ar     1 ZINC000103229253    0.1000
4      C4     -2.3687    0.0992   -0.0111 C.ar     1 ZINC000103229253   -0.1400
5      C5     -3.6062   -0.5581    0.0206 C.ar     1 ZINC000103229253   -0.1000
6      C6     -4.8510    0.2173    0.0367 C.2      1 ZINC000103229253    0.0200
7      C7     -6.0511   -0.4194   -0.0585 C.2      1 ZINC000103229253    0.0100
8      O8     -6.2418   -1.7617   -0.0651 O.3      1 ZINC000103229253   -0.2400
9      C9     -7.5597   -2.0157   -0.1719 C.2      1 ZINC000103229253    0.5100
10     O10    -8.0716   -3.1209   -0.2066 O.2      1 ZINC000103229253   -0.4100
11     C11    -8.2468   -0.7872   -0.2367 C.2      1 ZINC000103229253   -0.2100
12     Br12  -10.1173   -0.5569   -0.3916 Br       1 ZINC000103229253    0.0500
13     C13    -7.3153    0.2040   -0.1613 C.2      1 ZINC000103229253   -0.0100
14     Br14   -7.6501    2.0648   -0.1979 Br       1 ZINC000103229253    0.0500
15     C15    -3.6501   -1.9582    0.0363 C.ar     1 ZINC000103229253   -0.0700
16     C16    -2.4792   -2.6834    0.0206 C.ar     1 ZINC000103229253   -0.1800
17     C17    -1.2541   -2.0306   -0.0161 C.ar     1 ZINC000103229253    0.1400
18     O18    -0.1032   -2.7517   -0.0319 O.3      1 ZINC000103229253   -0.2900
19     C19    -0.2290   -4.1750   -0.0090 C.3      1 ZINC000103229253    0.1100
20     C20     1.1417   -4.8009   -0.0311 C.ar     1 ZINC000103229253    0.0600
21     N21     1.7191   -5.0863   -1.1847 N.ar     1 ZINC000103229253   -0.4100
22     C22     2.9211   -5.6352   -1.2040 C.ar     1 ZINC000103229253    0.0700
23     C23     3.5799   -5.9604   -2.5198 C.3      1 ZINC000103229253   -0.1000
24     C24     3.5749   -5.9109   -0.0164 C.ar     1 ZINC000103229253    0.1000
25     C25     4.9456   -6.5368   -0.0385 C.3      1 ZINC000103229253   -0.1100
26     N26     2.9976   -5.6250    1.1375 N.ar     1 ZINC000103229253   -0.4400
27     C27     1.7980   -5.0714    1.1568 C.ar     1 ZINC000103229253    0.1100
28     C28     1.1399   -4.7449    2.4726 C.3      1 ZINC000103229253   -0.1100
29     H29     1.0034    1.8042   -0.0923 H        1 ZINC000103229253    0.1000
30     H30    -0.5575    1.7768   -0.9473 H        1 ZINC000103229253    0.0600
31     H31    -0.5176    1.7887    0.8321 H        1 ZINC000103229253    0.0600
32     H32    -2.3289    1.1784   -0.0230 H        1 ZINC000103229253    0.1500
33     H33    -4.8159    1.2932    0.1241 H        1 ZINC000103229253    0.1700
34     H34    -4.6015   -2.4687    0.0611 H        1 ZINC000103229253    0.1500
35     H35    -2.5141   -3.7628    0.0328 H        1 ZINC000103229253    0.1400
36     H36    -0.7527   -4.4790    0.8973 H        1 ZINC000103229253    0.0900
37     H37    -0.7927   -4.5040   -0.8820 H        1 ZINC000103229253    0.0900
38     H38     4.1653   -5.1040   -2.8545 H        1 ZINC000103229253    0.0800
39     H39     4.2355   -6.8221   -2.3948 H        1 ZINC000103229253    0.0800
40     H40     2.8153   -6.1902   -3.2620 H        1 ZINC000103229253    0.0800
41     H41     5.7026   -5.7530   -0.0617 H        1 ZINC000103229253    0.0900
42     H42     5.0810   -7.1465    0.8548 H        1 ZINC000103229253    0.0800
43     H43     5.0444   -7.1637   -0.9247 H        1 ZINC000103229253    0.0900
44     H44     1.4116   -3.7332    2.7736 H        1 ZINC000103229253    0.0900
45     H45     0.0575   -4.8135    2.3643 H        1 ZINC000103229253    0.0800
46     H46     1.4746   -5.4520    3.2316 H        1 ZINC000103229253    0.0800
@<TRIPOS>BOND
1     1     2     1
2     1     29    1
3     1     30    1
4     1     31    1
5     2     3     1
6     3     17    ar
7     3     4     ar
8     4     5     ar
9     4     32    1
10    5     6     1
11    5     15    ar
12    6     7     2
13    6     33    1
14    7     13    1
15    7     8     1
16    8     9     1
17    9     10    2
18    9     11    1
19    11    12    1
20    11    13    2
21    13    14    1
22    15    16    ar
23    15    34    1
24    16    17    ar
25    16    35    1
26    17    18    1
27    18    19    1
28    19    20    1
29    19    36    1
30    19    37    1
31    20    27    ar
32    20    21    ar
33    21    22    ar
34    22    23    1
35    22    24    ar
36    23    38    1
37    23    39    1
38    23    40    1
39    24    25    1
40    24    26    ar
41    25    41    1
42    25    42    1
43    25    43    1
44    26    27    ar
45    27    28    1
46    28    44    1
47    28    45    1
48    28    46    1
@<TRIPOS>SUBSTRUCTURE
1   ZINC000103229253 1     RESIDUE    1   A     ZIN   1
