@<TRIPOS>MOLECULE
ZINC000000995905
  21   21    0    0    0
SMALL
USER_CHARGES
NO_NAME
@<TRIPOS>ATOM
    1 C1       -0.0187     1.5258     0.0104 C.3    1 <0>      -0.1400
    2 C2        0.0021    -0.0041     0.0020 C.3    1 <0>      -0.1100
    3 S3        0.8775    -0.6037     1.4684 S.3    1 <0>      -0.0300
    4 C4        0.7537    -2.3421     1.2091 C.2    1 <0>      -0.0300
    5 N5        0.1825    -2.9473     0.2127 N.2    1 <0>      -0.2700
    6 N6        0.1904    -4.3237     0.1893 N.pl3  1 <0>      -0.4000
    7 C7        0.8000    -4.9442     1.2185 C.2    1 <0>       0.3700
    8 N8        0.9348    -6.2559     1.4143 N.2    1 <0>      -0.6400
    9 C9        0.4320    -7.1173     0.5294 C.2    1 <0>       0.6100
   10 O10      -0.1506    -6.7055    -0.4582 O.2    1 <0>      -0.5900
   11 O11       0.5685    -8.4462     0.7278 O.3    1 <0>      -0.3600
   12 C12       0.0054    -9.3109    -0.2607 C.3    1 <0>       0.0500
   13 S13       1.3901    -3.6278     2.2509 S.3    1 <0>      -0.0400
   14 H14       1.0039     1.9031     0.0027 H      1 <0>       0.0600
   15 H15      -0.5459     1.8868    -0.8726 H      1 <0>       0.0700
   16 H16      -0.5289     1.8773     0.9072 H      1 <0>       0.0600
   17 H17      -1.0205    -0.3814     0.0098 H      1 <0>       0.0900
   18 H18       0.5123    -0.3556    -0.8948 H      1 <0>       0.0900
   19 H19       0.1852   -10.3488     0.0197 H      1 <0>       0.0900
   20 H20      -1.0679    -9.1338    -0.3294 H      1 <0>       0.0500
   21 H21       0.4694    -9.1098    -1.2262 H      1 <0>       0.0500
@<TRIPOS>BOND
   1    1    2 1
   2    1   14 1
   3    1   15 1
   4    1   16 1
   5    2    3 1
   6    2   17 1
   7    2   18 1
   8    3    4 1
   9    4   13 1
  10    4    5 2
  11    5    6 1
  12    6    7 1
  13    7    8 2
  14    7   13 1
  15    8    9 1
  16    9   10 2
  17    9   11 1
  18   11   12 1
  19   12   19 1
  20   12   20 1
  21   12   21 1
