@<TRIPOS>MOLECULE
ZINC000000537964
  43   45    0    0    0
SMALL
USER_CHARGES
NO_NAME
@<TRIPOS>ATOM
    1 O1       -0.0173     1.4248     0.0099 O.3    1 <0>      -0.5200
    2 C2        0.0021    -0.0041     0.0020 C.3    1 <0>       0.1400
    3 H3       -1.0205    -0.3814     0.0098 H      1 <0>       0.1700
    4 C4        0.7309    -0.5033     1.2229 C.ar   1 <0>      -0.0900
    5 C5        0.4743    -1.7848     1.7449 C.ar   1 <0>      -0.0700
    6 C6       -0.4660    -2.6418     1.1502 C.ar   1 <0>      -0.0900
    7 C7       -0.6856    -3.8743     1.6850 C.ar   1 <0>      -0.0800
    8 C8        0.0105    -4.2976     2.8156 C.ar   1 <0>      -0.0300
    9 C9        0.9285    -3.4932     3.4172 C.ar   1 <0>      -0.1400
   10 C10       1.6690    -3.9727     4.6390 C.3    1 <0>       0.5200
   11 F11       1.2455    -5.2660     4.9634 F      1 <0>      -0.1700
   12 F12       3.0432    -3.9839     4.3768 F      1 <0>      -0.1600
   13 F13       1.4058    -3.1132     5.7110 F      1 <0>      -0.1600
   14 C14       1.1834    -2.2131     2.8946 C.ar   1 <0>       0.1700
   15 N15       2.0801    -1.4016     3.4635 N.ar   1 <0>      -0.4000
   16 C16       2.3221    -0.2073     2.9796 C.ar   1 <0>       0.1000
   17 C17       3.3438     0.6667     3.6603 C.3    1 <0>       0.5200
   18 F18       3.9610    -0.0524     4.6896 F      1 <0>      -0.1500
   19 F19       4.3077     1.0689     2.7295 F      1 <0>      -0.1700
   20 F20       2.7114     1.7948     4.1937 F      1 <0>      -0.1600
   21 C21       1.6633     0.2733     1.8504 C.ar   1 <0>      -0.1500
   22 C22       0.7182    -0.4975    -1.2568 C.3    1 <0>      -0.0100
   23 H23       0.6554    -1.5845    -1.3075 H      1 <0>       0.1500
   24 C24       0.0517     0.1096    -2.4932 C.3    1 <0>      -0.1300
   25 C25       0.7715    -0.3872    -3.7502 C.3    1 <0>      -0.1400
   26 C26       2.2560    -0.0237    -3.6538 C.3    1 <0>      -0.1500
   27 C27       2.8409    -0.6259    -2.3744 C.3    1 <0>      -0.0100
   28 N28       2.1279    -0.0913    -1.2080 N.4    1 <0>      -0.5100
   29 H29       2.1875     0.9160    -1.2112 H      1 <0>       0.4200
   30 H30       2.5494    -0.4495    -0.3642 H      1 <0>       0.4200
   31 H31       0.8606     1.8301     0.0037 H      1 <0>       0.3700
   32 H32      -1.0119    -2.3248     0.2739 H      1 <0>       0.1500
   33 H33      -1.4092    -4.5325     1.2272 H      1 <0>       0.1600
   34 H34      -0.1820    -5.2799     3.2211 H      1 <0>       0.1600
   35 H35       1.8843     1.2618     1.4755 H      1 <0>       0.1600
   36 H36      -0.9946    -0.1942    -2.5288 H      1 <0>       0.1200
   37 H37       0.1142     1.1967    -2.4436 H      1 <0>       0.1000
   38 H38       0.6655    -1.4693    -3.8273 H      1 <0>       0.0800
   39 H39       0.3367     0.0864    -4.6304 H      1 <0>       0.1000
   40 H40       2.7854    -0.4228    -4.5190 H      1 <0>       0.1200
   41 H41       2.3643     1.0606    -3.6283 H      1 <0>       0.0900
   42 H42       2.7323    -1.7101    -2.4011 H      1 <0>       0.1300
   43 H43       3.8978    -0.3691    -2.3027 H      1 <0>       0.1400
@<TRIPOS>BOND
   1    1    2 1
   2    1   31 1
   3    2    3 1
   4    2    4 1
   5    2   22 1
   6    4   21 ar
   7    4    5 ar
   8    5   14 ar
   9    5    6 ar
  10    6    7 ar
  11    6   32 1
  12    7    8 ar
  13    7   33 1
  14    8    9 ar
  15    8   34 1
  16    9   10 1
  17    9   14 ar
  18   10   11 1
  19   10   12 1
  20   10   13 1
  21   14   15 ar
  22   15   16 ar
  23   16   17 1
  24   16   21 ar
  25   17   18 1
  26   17   19 1
  27   17   20 1
  28   21   35 1
  29   22   23 1
  30   22   28 1
  31   22   24 1
  32   24   25 1
  33   24   36 1
  34   24   37 1
  35   25   26 1
  36   25   38 1
  37   25   39 1
  38   26   27 1
  39   26   40 1
  40   26   41 1
  41   27   28 1
  42   27   42 1
  43   27   43 1
  44   28   29 1
  45   28   30 1
