@<TRIPOS>MOLECULE
ZINC000022415373
45    49    1     0     0
SMALL
USER_CHARGES
@<TRIPOS>ATOM
1      N1      0.0175   -1.1399   -0.0042 N.1      1 ZINC000022415373   -0.4000
2      C2      0.0021   -0.0041    0.0020 C.1      1 ZINC000022415373    0.2500
3      C3     -0.0173    1.4278    0.0099 C.ar     1 ZINC000022415373   -0.0200
4      C4     -1.2323    2.1135    0.0310 C.ar     1 ZINC000022415373   -0.0700
5      C5     -1.2449    3.4930    0.0384 C.ar     1 ZINC000022415373   -0.1200
6      C6     -0.0572    4.2050    0.0251 C.ar     1 ZINC000022415373   -0.0900
7      C7      1.1546    3.5436    0.0037 C.ar     1 ZINC000022415373   -0.1100
8      C8      1.1888    2.1524    0.0023 C.ar     1 ZINC000022415373    0.0000
9      C9      2.4871    1.4386   -0.0201 C.ar     1 ZINC000022415373   -0.0500
10     C10     2.7404    0.4176    0.8952 C.ar     1 ZINC000022415373   -0.1000
11     C11     3.9512   -0.2439    0.8692 C.ar     1 ZINC000022415373   -0.0900
12     C12     4.9127    0.1041   -0.0626 C.ar     1 ZINC000022415373   -0.0800
13     C13     6.2328   -0.6225   -0.0860 C.3      1 ZINC000022415373   -0.0800
14     S14     6.1145   -2.0531   -1.1885 S.3      1 ZINC000022415373    0.0800
15     C15     7.7467   -2.6975   -1.0298 C.2      1 ZINC000022415373    0.1300
16     N16     8.7076   -2.2039   -0.2841 N.2      1 ZINC000022415373   -0.2800
17     N17     9.7633   -2.9280   -0.4111 N.2      1 ZINC000022415373   -0.2600
18     C18     9.5195   -3.9122   -1.2420 C.2      1 ZINC000022415373    0.2200
19     C19    10.4707   -4.9642   -1.6550 C.ar     1 ZINC000022415373   -0.0200
20     C20    10.0726   -5.9528   -2.5565 C.ar     1 ZINC000022415373   -0.0700
21     C21    10.9623   -6.9343   -2.9409 C.ar     1 ZINC000022415373   -0.1000
22     C22    12.2533   -6.9437   -2.4340 C.ar     1 ZINC000022415373    0.0600
23     O23    13.3021   -7.7898   -2.6526 O.3      1 ZINC000022415373   -0.3000
24     C24    14.4697   -7.0811   -2.1975 C.3      1 ZINC000022415373    0.2100
25     O25    13.9583   -6.1899   -1.1890 O.3      1 ZINC000022415373   -0.3000
26     C26    12.6573   -5.9587   -1.5329 C.ar     1 ZINC000022415373    0.0300
27     C27    11.7723   -4.9690   -1.1488 C.ar     1 ZINC000022415373   -0.0500
28     O28     8.2357   -3.7904   -1.6468 O.3      1 ZINC000022415373   -0.2000
29     C29     4.6672    1.1162   -0.9731 C.ar     1 ZINC000022415373   -0.0900
30     C30     3.4582    1.7813   -0.9603 C.ar     1 ZINC000022415373   -0.1000
31     H31    -2.1624    1.5646    0.0411 H        1 ZINC000022415373    0.1400
32     H32    -2.1869    4.0210    0.0544 H        1 ZINC000022415373    0.1400
33     H33    -0.0790    5.2847    0.0311 H        1 ZINC000022415373    0.1400
34     H34     2.0765    4.1062   -0.0073 H        1 ZINC000022415373    0.1400
35     H35     1.9906    0.1453    1.6232 H        1 ZINC000022415373    0.1300
36     H36     4.1487   -1.0346    1.5778 H        1 ZINC000022415373    0.1300
37     H37     7.0114    0.0501   -0.4457 H        1 ZINC000022415373    0.1100
38     H38     6.4801   -0.9592    0.9208 H        1 ZINC000022415373    0.1100
39     H39     9.0679   -5.9494   -2.9528 H        1 ZINC000022415373    0.1500
40     H40    10.6525   -7.6983   -3.6385 H        1 ZINC000022415373    0.1500
41     H41    15.1934   -7.7726   -1.7660 H        1 ZINC000022415373    0.1400
42     H42    14.9181   -6.5169   -3.0153 H        1 ZINC000022415373    0.0900
43     H43    12.0859   -4.2023   -0.4559 H        1 ZINC000022415373    0.1500
44     H44     5.4218    1.3838   -1.6980 H        1 ZINC000022415373    0.1300
45     H45     3.2676    2.5712   -1.6717 H        1 ZINC000022415373    0.1300
@<TRIPOS>BOND
1     1     2     3
2     2     3     1
3     3     8     ar
4     3     4     ar
5     4     5     ar
6     4     31    1
7     5     6     ar
8     5     32    1
9     6     7     ar
10    6     33    1
11    7     8     ar
12    7     34    1
13    8     9     1
14    9     30    ar
15    9     10    ar
16    10    11    ar
17    10    35    1
18    11    12    ar
19    11    36    1
20    12    13    1
21    12    29    ar
22    13    14    1
23    13    37    1
24    13    38    1
25    14    15    1
26    15    28    1
27    15    16    2
28    16    17    1
29    17    18    2
30    18    19    1
31    18    28    1
32    19    27    ar
33    19    20    ar
34    20    21    ar
35    20    39    1
36    21    22    ar
37    21    40    1
38    22    26    ar
39    22    23    1
40    23    24    1
41    24    25    1
42    24    41    1
43    24    42    1
44    25    26    1
45    26    27    ar
46    27    43    1
47    29    30    ar
48    29    44    1
49    30    45    1
@<TRIPOS>SUBSTRUCTURE
1   ZINC000022415373 1     RESIDUE    1   A     ZIN   1
