@<TRIPOS>MOLECULE
ZINC000098208075
71    75    1     0     0
SMALL
USER_CHARGES
@<TRIPOS>ATOM
1      C1      3.5324    0.0084    1.6002 C.3      1 ZINC000098208075    0.0200
2      O2      3.0699   -1.2847    1.2052 O.3      1 ZINC000098208075   -0.3200
3      C3      1.7479   -1.4038    0.9097 C.ar     1 ZINC000098208075    0.1200
4      C4      0.9196   -0.3021    0.9926 C.ar     1 ZINC000098208075   -0.1300
5      C5     -0.4386   -0.4279    0.6877 C.ar     1 ZINC000098208075   -0.0900
6      C6     -1.3277    0.7472    0.7746 C.2      1 ZINC000098208075    0.5600
7      N7     -2.6372    0.6246    0.4803 N.am     1 ZINC000098208075   -0.8500
8      O8     -0.8787    1.8257    1.1116 O.2      1 ZINC000098208075   -0.5300
9      C9     -0.9532   -1.6673    0.3003 C.ar     1 ZINC000098208075   -0.1000
10     C10    -0.1226   -2.7638    0.2195 C.ar     1 ZINC000098208075   -0.0900
11     C11     1.2289   -2.6385    0.5168 C.ar     1 ZINC000098208075    0.1100
12     N12     2.0670   -3.7520    0.4331 N.am     1 ZINC000098208075   -0.6300
13     C13     1.5835   -4.9811    0.7018 C.2      1 ZINC000098208075    0.5100
14     O14     0.4019   -5.1313    0.9304 O.2      1 ZINC000098208075   -0.5000
15     C15     2.5111   -6.1686    0.7184 C.3      1 ZINC000098208075    0.0100
16     H16     3.2276   -6.1017   -0.1004 H        1 ZINC000098208075    0.1800
17     N17     1.7355   -7.4334    0.6262 N.4      1 ZINC000098208075   -0.5100
18     H18     0.9615   -7.3264   -0.0121 H        1 ZINC000098208075    0.4400
19     H19     2.3323   -8.1921    0.3326 H        1 ZINC000098208075    0.4300
20     C20     1.2398   -7.6645    2.0100 C.3      1 ZINC000098208075    0.0500
21     H21     0.3601   -7.0517    2.2068 H        1 ZINC000098208075    0.1800
22     C22     0.9171   -9.1450    2.2220 C.3      1 ZINC000098208075   -0.1400
23     C23    -0.2981   -9.5284    1.3751 C.3      1 ZINC000098208075   -0.0700
24     C24     0.0348   -9.3450   -0.1069 C.3      1 ZINC000098208075   -0.1700
25     C25    -0.6625  -10.9908    1.6388 C.3      1 ZINC000098208075   -0.1500
26     C26    -1.4817   -8.6329    1.7466 C.3      1 ZINC000098208075   -0.1600
27     C27     2.4057   -7.2331    2.9088 C.3      1 ZINC000098208075   -0.0200
28     C28     3.2142   -8.4122    3.3691 C.2      1 ZINC000098208075    0.5500
29     O29     3.8009   -9.2123    2.6710 O.2      1 ZINC000098208075   -0.4700
30     N30     3.1558   -8.4001    4.7121 N.am     1 ZINC000098208075   -0.6400
31     C31     2.3805   -7.3156    5.2009 C.2      1 ZINC000098208075    0.1600
32     C32     1.9077   -6.5842    4.1757 C.2      1 ZINC000098208075   -0.3000
33     S33     0.9465   -5.2375    4.7748 S.3      1 ZINC000098208075    0.2800
34     C34     1.2290   -5.7322    6.4362 C.2      1 ZINC000098208075   -0.1100
35     Cl35    0.6083   -4.9200    7.8394 Cl       1 ZINC000098208075    0.0300
36     C36     1.9881   -6.8213    6.4575 C.2      1 ZINC000098208075   -0.1200
37     C37     3.2489   -6.2577    2.0745 C.3      1 ZINC000098208075   -0.0200
38     H38     3.2837   -5.2795    2.5541 H        1 ZINC000098208075    0.1500
39     C39     4.6428   -6.7982    1.8846 C.ar     1 ZINC000098208075   -0.1500
40     C40     4.9018   -7.7010    0.8710 C.ar     1 ZINC000098208075   -0.0600
41     C41     6.1804   -8.1971    0.6957 C.ar     1 ZINC000098208075   -0.1000
42     C42     7.2015   -7.7913    1.5341 C.ar     1 ZINC000098208075   -0.0600
43     C43     6.9450   -6.8881    2.5499 C.ar     1 ZINC000098208075   -0.0700
44     Cl44    8.2271   -6.3785    3.6035 Cl       1 ZINC000098208075   -0.0200
45     C45     5.6652   -6.3859    2.7221 C.ar     1 ZINC000098208075    0.1300
46     F46     5.4128   -5.5037    3.7136 F        1 ZINC000098208075   -0.1100
47     H47     4.6018   -0.0356    1.8065 H        1 ZINC000098208075    0.1100
48     H48     3.3463    0.7217    0.7973 H        1 ZINC000098208075    0.0600
49     H49     3.0018    0.3254    2.4981 H        1 ZINC000098208075    0.0600
50     H50     1.3205    0.6548    1.2929 H        1 ZINC000098208075    0.1500
51     H51    -2.9955   -0.2358    0.2115 H        1 ZINC000098208075    0.4000
52     H52    -3.2215    1.3968    0.5374 H        1 ZINC000098208075    0.4100
53     H53    -2.0024   -1.7664    0.0643 H        1 ZINC000098208075    0.1400
54     H54    -0.5220   -3.7215   -0.0799 H        1 ZINC000098208075    0.1600
55     H55     2.9972   -3.6411    0.1816 H        1 ZINC000098208075    0.4300
56     H56     1.7733   -9.7499    1.9237 H        1 ZINC000098208075    0.1100
57     H57     0.6965   -9.3216    3.2748 H        1 ZINC000098208075    0.1200
58     H58     1.0734   -9.6246   -0.2833 H        1 ZINC000098208075    0.0600
59     H59    -0.6189   -9.9779   -0.7072 H        1 ZINC000098208075    0.0900
60     H60    -0.1131   -8.3018   -0.3861 H        1 ZINC000098208075    0.0500
61     H61    -0.8997  -11.1215    2.6946 H        1 ZINC000098208075    0.0600
62     H62    -1.5282  -11.2640    1.0354 H        1 ZINC000098208075    0.0700
63     H63     0.1807  -11.6288    1.3741 H        1 ZINC000098208075    0.0600
64     H64    -1.2221   -7.5911    1.5588 H        1 ZINC000098208075    0.0600
65     H65    -2.3474   -8.9061    1.1433 H        1 ZINC000098208075    0.0700
66     H66    -1.7189   -8.7636    2.8024 H        1 ZINC000098208075    0.0700
67     H67     3.5914   -9.0549    5.2800 H        1 ZINC000098208075    0.4300
68     H68     2.2849   -7.2972    7.3804 H        1 ZINC000098208075    0.1700
69     H69     4.1048   -8.0196    0.2154 H        1 ZINC000098208075    0.1200
70     H70     6.3814   -8.9026   -0.0969 H        1 ZINC000098208075    0.1500
71     H71     8.1998   -8.1797    1.3964 H        1 ZINC000098208075    0.1500
@<TRIPOS>BOND
1     1     2     1
2     1     47    1
3     1     48    1
4     1     49    1
5     2     3     1
6     3     11    ar
7     3     4     ar
8     4     5     ar
9     4     50    1
10    5     6     1
11    5     9     ar
12    6     7     am
13    6     8     2
14    7     51    1
15    7     52    1
16    9     10    ar
17    9     53    1
18    10    11    ar
19    10    54    1
20    11    12    1
21    12    13    am
22    12    55    1
23    13    14    2
24    13    15    1
25    15    16    1
26    15    37    1
27    15    17    1
28    17    18    1
29    17    19    1
30    17    20    1
31    20    21    1
32    20    22    1
33    20    27    1
34    22    23    1
35    22    56    1
36    22    57    1
37    23    24    1
38    23    25    1
39    23    26    1
40    24    58    1
41    24    59    1
42    24    60    1
43    25    61    1
44    25    62    1
45    25    63    1
46    26    64    1
47    26    65    1
48    26    66    1
49    27    32    1
50    27    28    1
51    27    37    1
52    28    29    2
53    28    30    am
54    30    31    1
55    30    67    1
56    31    36    1
57    31    32    2
58    32    33    1
59    33    34    1
60    34    35    1
61    34    36    2
62    36    68    1
63    37    38    1
64    37    39    1
65    39    45    ar
66    39    40    ar
67    40    41    ar
68    40    69    1
69    41    42    ar
70    41    70    1
71    42    43    ar
72    42    71    1
73    43    44    1
74    43    45    ar
75    45    46    1
@<TRIPOS>SUBSTRUCTURE
1   ZINC000098208075 1     RESIDUE    1   A     ZIN   1
