@<TRIPOS>MOLECULE
ZINC000005543794
  21   23    0    0    0
SMALL
USER_CHARGES
NO_NAME
@<TRIPOS>ATOM
    1 N1       -0.0169     1.3935     0.0097 N.pl3  1 <0>      -0.8200
    2 C2        0.0021    -0.0041     0.0020 C.2    1 <0>       0.3900
    3 N3       -1.0409    -0.7861     0.0021 N.2    1 <0>      -0.2900
    4 N4       -0.6682    -2.1322    -0.0076 N.pl3  1 <0>      -0.4900
    5 C5        0.6998    -2.2292    -0.0144 C.ar   1 <0>       0.3200
    6 N6        1.5441    -3.2422    -0.0247 N.ar   1 <0>      -0.4700
    7 C7        2.8572    -3.0059    -0.0297 C.ar   1 <0>       0.1600
    8 C8        3.7874    -4.0629    -0.0414 C.ar   1 <0>      -0.1100
    9 C9        5.1182    -3.7861    -0.0466 C.ar   1 <0>      -0.0700
   10 C10       5.5930    -2.4759    -0.0406 C.ar   1 <0>      -0.1200
   11 C11       4.7482    -1.4115    -0.0289 C.ar   1 <0>      -0.0600
   12 C12       3.3560    -1.6288    -0.0236 C.ar   1 <0>       0.0400
   13 N13       2.4983    -0.6092    -0.0123 N.ar   1 <0>      -0.3500
   14 C14       1.1995    -0.8522    -0.0140 C.ar   1 <0>       0.0100
   15 H15       0.8165     1.8899     0.0044 H      1 <0>       0.4200
   16 H16      -0.8634     1.8670     0.0163 H      1 <0>       0.4100
   17 H17      -1.2824    -2.8829    -0.0090 H      1 <0>       0.4500
   18 H18       3.4456    -5.0874    -0.0459 H      1 <0>       0.1400
   19 H19       5.8255    -4.6022    -0.0553 H      1 <0>       0.1400
   20 H20       6.6589    -2.3022    -0.0451 H      1 <0>       0.1400
   21 H21       5.1414    -0.4056    -0.0237 H      1 <0>       0.1400
@<TRIPOS>BOND
   1    1    2 1
   2    1   15 1
   3    1   16 1
   4    2   14 1
   5    2    3 2
   6    3    4 1
   7    4    5 1
   8    4   17 1
   9    5   14 ar
  10    5    6 ar
  11    6    7 ar
  12    7   12 ar
  13    7    8 ar
  14    8    9 ar
  15    8   18 1
  16    9   10 ar
  17    9   19 1
  18   10   11 ar
  19   10   20 1
  20   11   12 ar
  21   11   21 1
  22   12   13 ar
  23   13   14 ar
