@<TRIPOS>MOLECULE
ZINC000049538664
  30   32    0    0    0
SMALL
USER_CHARGES
NO_NAME
@<TRIPOS>ATOM
    1 N1        0.0175    -1.1399    -0.0042 N.1    1 <0>      -0.4200
    2 C2        0.0021    -0.0041     0.0020 C.1    1 <0>       0.2600
    3 C3       -0.0173     1.4278     0.0099 C.ar   1 <0>      -0.1400
    4 C4       -1.2458     2.1167     0.0312 C.ar   1 <0>       0.3200
    5 N5       -2.4393     1.4010     0.0446 N.pl3  1 <0>      -0.8600
    6 C6       -1.2739     3.4973     0.0393 C.ar   1 <0>      -0.2500
    7 C7       -0.0855     4.2249     0.0261 C.ar   1 <0>       0.2300
    8 N8        0.1946     5.5658     0.0295 N.pl3  1 <0>      -0.5000
    9 N9        1.5809     5.7470     0.0103 N.2    1 <0>      -0.3300
   10 C10       2.1840     4.5877    -0.0050 C.2    1 <0>       0.3900
   11 N11       3.5649     4.3765    -0.0267 N.pl3  1 <0>      -0.8300
   12 C12       1.1516     3.5512     0.0043 C.ar   1 <0>      -0.2300
   13 C13       1.1871     2.1469     0.0023 C.ar   1 <0>       0.1400
   14 C14       2.4828     1.4329    -0.0112 C.ar   1 <0>      -0.0700
   15 C15       3.3346     1.5474    -1.1106 C.ar   1 <0>      -0.1000
   16 C16       4.5417     0.8794    -1.1167 C.ar   1 <0>      -0.1200
   17 C17       4.9084     0.0973    -0.0359 C.ar   1 <0>      -0.1100
   18 C18       4.0684    -0.0204     1.0572 C.ar   1 <0>      -0.1100
   19 C19       2.8610     0.6467     1.0780 C.ar   1 <0>      -0.0900
   20 H20      -2.4233     0.4312     0.0392 H      1 <0>       0.4000
   21 H21      -3.2871     1.8721     0.0593 H      1 <0>       0.4100
   22 H22      -2.2213     4.0155     0.0557 H      1 <0>       0.1400
   23 H23      -0.4646     6.2772     0.0428 H      1 <0>       0.4400
   24 H24       4.1713     5.1336    -0.0320 H      1 <0>       0.4100
   25 H25       3.9172     3.4728    -0.0365 H      1 <0>       0.4100
   26 H26       3.0493     2.1573    -1.9550 H      1 <0>       0.1300
   27 H27       5.2017     0.9668    -1.9671 H      1 <0>       0.1300
   28 H28       5.8543    -0.4239    -0.0457 H      1 <0>       0.1300
   29 H29       4.3605    -0.6324     1.8978 H      1 <0>       0.1300
   30 H30       2.2063     0.5544     1.9320 H      1 <0>       0.1300
@<TRIPOS>BOND
   1    1    2 3
   2    2    3 1
   3    3   13 ar
   4    3    4 ar
   5    4    5 1
   6    4    6 ar
   7    5   20 1
   8    5   21 1
   9    6    7 ar
  10    6   22 1
  11    7   12 ar
  12    7    8 1
  13    8    9 1
  14    8   23 1
  15    9   10 2
  16   10   11 1
  17   10   12 1
  18   11   24 1
  19   11   25 1
  20   12   13 ar
  21   13   14 1
  22   14   19 ar
  23   14   15 ar
  24   15   16 ar
  25   15   26 1
  26   16   17 ar
  27   16   27 1
  28   17   18 ar
  29   17   28 1
  30   18   19 ar
  31   18   29 1
  32   19   30 1
