@<TRIPOS>MOLECULE
ZINC000043202455
60    65    1     0     0
SMALL
USER_CHARGES
@<TRIPOS>ATOM
1      C1     -1.8179    1.0283   -0.1508 C.3      1 ZINC000043202455   -0.0900
2      C2     -1.0947   -0.2927   -0.0961 C.2      1 ZINC000043202455    0.1700
3      C3     -0.5481   -0.8894   -1.2005 C.2      1 ZINC000043202455   -0.3100
4      C4     -0.5740   -0.3639   -2.5683 C.2      1 ZINC000043202455    0.6000
5      O5     -1.1193    0.6990   -2.8017 O.2      1 ZINC000043202455   -0.5100
6      N6      0.0061   -1.0575   -3.5678 N.am     1 ZINC000043202455   -0.6500
7      C7     -0.1007   -0.6054   -4.8856 C.ar     1 ZINC000043202455    0.1700
8      C8     -0.1095    0.7547   -5.1565 C.ar     1 ZINC000043202455   -0.1200
9      C9     -0.2157    1.1999   -6.4606 C.ar     1 ZINC000043202455   -0.0900
10     C10    -0.3137    0.2944   -7.5020 C.ar     1 ZINC000043202455   -0.1300
11     C11    -0.3062   -1.0627   -7.2473 C.ar     1 ZINC000043202455   -0.0900
12     C12    -0.1934   -1.5236   -5.9383 C.ar     1 ZINC000043202455   -0.0400
13     C13    -0.1848   -2.9802   -5.6593 C.2      1 ZINC000043202455    0.0800
14     C14    -0.1751   -3.9682   -6.5871 C.2      1 ZINC000043202455   -0.0100
15     N15    -0.1691   -5.1778   -5.9034 N.pl3    1 ZINC000043202455   -0.4000
16     C16    -0.1594   -6.5250   -6.1853 C.2      1 ZINC000043202455    0.0800
17     C17    -0.1509   -7.0109   -7.6118 C.3      1 ZINC000043202455    0.1100
18     N18    -1.5284   -7.0634   -8.1194 N.3      1 ZINC000043202455   -0.5300
19     C19    -2.4238   -7.7076   -7.1475 C.3      1 ZINC000043202455    0.0100
20     C20    -3.8555   -7.6875   -7.6894 C.3      1 ZINC000043202455    0.0600
21     O21    -3.8862   -8.3337   -8.9649 O.3      1 ZINC000043202455   -0.3800
22     C22    -3.0260   -7.7318   -9.9361 C.3      1 ZINC000043202455    0.0600
23     C23    -1.5859   -7.7523   -9.4169 C.3      1 ZINC000043202455    0.0200
24     C24    -0.1571   -7.3841   -5.1815 C.2      1 ZINC000043202455   -0.2000
25     S25    -0.1685   -6.3974   -3.7091 S.3      1 ZINC000043202455    0.1700
26     C26    -0.1756   -4.8562   -4.5802 C.2      1 ZINC000043202455    0.1600
27     N27    -0.1795   -3.5523   -4.4391 N.2      1 ZINC000043202455   -0.4500
28     S28     0.1927   -2.4019   -0.6827 S.3      1 ZINC000043202455    0.2000
29     C29    -0.2887   -2.0999    0.9293 C.2      1 ZINC000043202455    0.1000
30     C30    -0.0123   -2.9947    2.0726 C.ar     1 ZINC000043202455   -0.0900
31     C31     0.6949   -4.1885    1.8875 C.ar     1 ZINC000043202455   -0.0500
32     C32     0.9278   -4.9908    2.9908 C.ar     1 ZINC000043202455   -0.1700
33     C33     0.4590   -4.5915    4.2293 C.ar     1 ZINC000043202455    0.1200
34     N34    -0.2050   -3.4606    4.3742 N.ar     1 ZINC000043202455   -0.4800
35     C35    -0.4470   -2.6610    3.3564 C.ar     1 ZINC000043202455    0.1600
36     N36    -0.9288   -0.9674    1.0100 N.2      1 ZINC000043202455   -0.4700
37     H37    -1.1059    1.8390    0.0038 H        1 ZINC000043202455    0.0900
38     H38    -2.2927    1.1426   -1.1253 H        1 ZINC000043202455    0.1000
39     H39    -2.5783    1.0588    0.6296 H        1 ZINC000043202455    0.0800
40     H40     0.4977   -1.8705   -3.3723 H        1 ZINC000043202455    0.4200
41     H41    -0.0337    1.4664   -4.3478 H        1 ZINC000043202455    0.1400
42     H42    -0.2227    2.2598   -6.6677 H        1 ZINC000043202455    0.1300
43     H43    -0.3967    0.6504   -8.5183 H        1 ZINC000043202455    0.1300
44     H44    -0.3836   -1.7662   -8.0632 H        1 ZINC000043202455    0.1300
45     H45    -0.1724   -3.8392   -7.6594 H        1 ZINC000043202455    0.1900
46     H46     0.4364   -6.3274   -8.2250 H        1 ZINC000043202455    0.1000
47     H47     0.2900   -8.0069   -7.6538 H        1 ZINC000043202455    0.0700
48     H48    -2.1086   -8.7391   -6.9902 H        1 ZINC000043202455    0.0500
49     H49    -2.3849   -7.1662   -6.2022 H        1 ZINC000043202455    0.0900
50     H50    -4.5136   -8.2145   -6.9986 H        1 ZINC000043202455    0.1000
51     H51    -4.1899   -6.6556   -7.7961 H        1 ZINC000043202455    0.0600
52     H52    -3.0842   -8.2907  -10.8700 H        1 ZINC000043202455    0.1000
53     H53    -3.3363   -6.7011  -10.1081 H        1 ZINC000043202455    0.0600
54     H54    -0.9353   -7.2435  -10.1282 H        1 ZINC000043202455    0.0900
55     H55    -1.2573   -8.7845   -9.2958 H        1 ZINC000043202455    0.0500
56     H56    -0.1499   -8.4622   -5.2449 H        1 ZINC000043202455    0.2100
57     H57     1.0494   -4.4762    0.9087 H        1 ZINC000043202455    0.1400
58     H58     1.4696   -5.9191    2.8859 H        1 ZINC000043202455    0.1500
59     H59     0.6390   -5.2159    5.0919 H        1 ZINC000043202455    0.1600
60     H60    -0.9938   -1.7431    3.5148 H        1 ZINC000043202455    0.1700
@<TRIPOS>BOND
1     1     2     1
2     1     37    1
3     1     38    1
4     1     39    1
5     2     36    1
6     2     3     2
7     3     4     1
8     3     28    1
9     4     5     2
10    4     6     am
11    6     7     1
12    6     40    1
13    7     12    ar
14    7     8     ar
15    8     9     ar
16    8     41    1
17    9     10    ar
18    9     42    1
19    10    11    ar
20    10    43    1
21    11    12    ar
22    11    44    1
23    12    13    1
24    13    27    1
25    13    14    2
26    14    15    1
27    14    45    1
28    15    26    1
29    15    16    1
30    16    17    1
31    16    24    2
32    17    18    1
33    17    46    1
34    17    47    1
35    18    23    1
36    18    19    1
37    19    20    1
38    19    48    1
39    19    49    1
40    20    21    1
41    20    50    1
42    20    51    1
43    21    22    1
44    22    23    1
45    22    52    1
46    22    53    1
47    23    54    1
48    23    55    1
49    24    25    1
50    24    56    1
51    25    26    1
52    26    27    2
53    28    29    1
54    29    30    1
55    29    36    2
56    30    35    ar
57    30    31    ar
58    31    32    ar
59    31    57    1
60    32    33    ar
61    32    58    1
62    33    34    ar
63    33    59    1
64    34    35    ar
65    35    60    1
@<TRIPOS>SUBSTRUCTURE
1   ZINC000043202455 1     RESIDUE    1   A     ZIN   1
