@<TRIPOS>MOLECULE
ZINC000002159818
43    45    1     0     0
SMALL
USER_CHARGES
@<TRIPOS>ATOM
1      C1     -0.0226    1.5280   -0.0921 C.3      1 ZINC000002159818   -0.1500
2      C2     -0.0005   -0.0016   -0.0621 C.3      1 ZINC000002159818    0.0600
3      O3     -1.3623   -0.5050   -0.0426 O.3      1 ZINC000002159818   -0.3500
4      C4     -1.5195   -1.8432   -0.0151 C.2      1 ZINC000002159818    0.5200
5      O5     -0.5452   -2.5695   -0.0075 O.2      1 ZINC000002159818   -0.5200
6      C6     -2.8723   -2.4256    0.0059 C.ar     1 ZINC000002159818   -0.2200
7      C7     -3.9925   -1.5979    0.1206 C.ar     1 ZINC000002159818   -0.0100
8      C8     -5.2550   -2.1489    0.1391 C.ar     1 ZINC000002159818   -0.1900
9      C9     -5.4217   -3.5215    0.0445 C.ar     1 ZINC000002159818   -0.0300
10     C10    -4.3260   -4.3525   -0.0688 C.ar     1 ZINC000002159818   -0.2200
11     C11    -3.0450   -3.8157   -0.0951 C.ar     1 ZINC000002159818    0.2800
12     N12    -1.9409   -4.6496   -0.2096 N.pl3    1 ZINC000002159818   -0.7300
13     C13    -2.1276   -6.0868   -0.4239 C.3      1 ZINC000002159818    0.1500
14     C14    -0.7824   -6.7604   -0.5126 C.2      1 ZINC000002159818    0.0100
15     C15    -0.2175   -7.3369    0.5803 C.2      1 ZINC000002159818   -0.2100
16     C16     1.0421   -7.9608    0.4714 C.2      1 ZINC000002159818    0.5100
17     O17     1.5374   -8.4738    1.4589 O.2      1 ZINC000002159818   -0.4500
18     O18     1.7091   -8.0044   -0.6921 O.3      1 ZINC000002159818   -0.2700
19     C19     1.2039   -7.4507   -1.8162 C.ar     1 ZINC000002159818    0.1600
20     C20     1.9086   -7.5067   -3.0096 C.ar     1 ZINC000002159818   -0.1500
21     C21     1.3791   -6.9353   -4.1533 C.ar     1 ZINC000002159818    0.1400
22     O22     2.0736   -6.9932   -5.3190 O.3      1 ZINC000002159818   -0.4800
23     C23     0.1348   -6.2994   -4.1183 C.ar     1 ZINC000002159818    0.0700
24     O24    -0.3742   -5.7423   -5.2500 O.3      1 ZINC000002159818   -0.4800
25     C25    -0.5780   -6.2358   -2.9403 C.ar     1 ZINC000002159818   -0.0700
26     C26    -0.0517   -6.8164   -1.7802 C.ar     1 ZINC000002159818   -0.1400
27     H27     0.9996    1.9059   -0.1067 H        1 ZINC000002159818    0.0800
28     H28    -0.5479    1.8663   -0.9853 H        1 ZINC000002159818    0.0700
29     H29    -0.5355    1.9014    0.7943 H        1 ZINC000002159818    0.0700
30     H30     0.5123   -0.3750   -0.9485 H        1 ZINC000002159818    0.0700
31     H31     0.5247   -0.3399    0.8311 H        1 ZINC000002159818    0.0700
32     H32    -3.8686   -0.5276    0.1950 H        1 ZINC000002159818    0.1400
33     H33    -6.1196   -1.5078    0.2282 H        1 ZINC000002159818    0.1300
34     H34    -6.4157   -3.9435    0.0600 H        1 ZINC000002159818    0.1300
35     H35    -4.4646   -5.4211   -0.1417 H        1 ZINC000002159818    0.1300
36     H36    -1.0459   -4.2807   -0.1475 H        1 ZINC000002159818    0.4200
37     H37    -2.6908   -6.5082    0.4087 H        1 ZINC000002159818    0.0900
38     H38    -2.6762   -6.2475   -1.3520 H        1 ZINC000002159818    0.0900
39     H39    -0.7317   -7.3170    1.5298 H        1 ZINC000002159818    0.1700
40     H40     2.8707   -7.9959   -3.0461 H        1 ZINC000002159818    0.1600
41     H41     1.8783   -7.7741   -5.8549 H        1 ZINC000002159818    0.4000
42     H42    -0.9175   -6.3455   -5.7753 H        1 ZINC000002159818    0.3900
43     H43    -1.5392   -5.7441   -2.9133 H        1 ZINC000002159818    0.1500
@<TRIPOS>BOND
1     1     2     1
2     1     27    1
3     1     28    1
4     1     29    1
5     2     3     1
6     2     30    1
7     2     31    1
8     3     4     1
9     4     5     2
10    4     6     1
11    6     11    ar
12    6     7     ar
13    7     8     ar
14    7     32    1
15    8     9     ar
16    8     33    1
17    9     10    ar
18    9     34    1
19    10    11    ar
20    10    35    1
21    11    12    1
22    12    13    1
23    12    36    1
24    13    14    1
25    13    37    1
26    13    38    1
27    14    26    1
28    14    15    2
29    15    16    1
30    15    39    1
31    16    17    2
32    16    18    1
33    18    19    1
34    19    26    ar
35    19    20    ar
36    20    21    ar
37    20    40    1
38    21    22    1
39    21    23    ar
40    22    41    1
41    23    24    1
42    23    25    ar
43    24    42    1
44    25    26    ar
45    25    43    1
@<TRIPOS>SUBSTRUCTURE
1   ZINC000002159818 1     RESIDUE    1   A     ZIN   1
