@<TRIPOS>MOLECULE
ZINC000000103926
36    40    1     0     0
SMALL
USER_CHARGES
@<TRIPOS>ATOM
1      C1     -0.0165    1.3638    0.0095 C.2      1 ZINC000000103926    0.0800
2      C2      1.2518    1.8385   -0.0000 C.2      1 ZINC000000103926   -0.1100
3      C3      1.6636    3.2638    0.0037 C.2      1 ZINC000000103926    0.1600
4      C4      0.7695    4.2707    0.0224 C.2      1 ZINC000000103926   -0.2700
5      S5      1.6543    5.7946    0.0210 S.3      1 ZINC000000103926    0.0900
6      C6      3.1774    4.9109   -0.0052 C.2      1 ZINC000000103926    0.1700
7      C7      4.5198    5.5239   -0.0188 C.2      1 ZINC000000103926   -0.1300
8      C8      5.7105    4.8703   -0.0446 C.2      1 ZINC000000103926    0.1300
9      N9      6.7315    5.7738   -0.0500 N.pl3    1 ZINC000000103926   -0.5800
10     C10     6.2317    7.0583   -0.0277 C.ar     1 ZINC000000103926    0.0900
11     C11     6.8311    8.3136   -0.0219 C.ar     1 ZINC000000103926   -0.1200
12     C12     6.0500    9.4483    0.0036 C.ar     1 ZINC000000103926   -0.1000
13     C13     4.6659    9.3536    0.0243 C.ar     1 ZINC000000103926   -0.1300
14     C14     4.0529    8.1202    0.0195 C.ar     1 ZINC000000103926   -0.0800
15     C15     4.8298    6.9639   -0.0137 C.ar     1 ZINC000000103926   -0.0900
16     N16     2.9336    3.6318   -0.0055 N.2      1 ZINC000000103926   -0.4700
17     C17     2.1423    0.6673   -0.0148 C.ar     1 ZINC000000103926   -0.0800
18     C18     3.5267    0.5045   -0.0293 C.ar     1 ZINC000000103926   -0.0600
19     C19     4.0626   -0.7532   -0.0416 C.ar     1 ZINC000000103926   -0.1500
20     C20     3.2386   -1.8697   -0.0402 C.ar     1 ZINC000000103926   -0.1000
21     C21     1.8678   -1.7308   -0.0264 C.ar     1 ZINC000000103926   -0.1300
22     C22     1.3020   -0.4598   -0.0128 C.ar     1 ZINC000000103926    0.0900
23     N23     0.0021   -0.0041    0.0020 N.pl3    1 ZINC000000103926   -0.5900
24     H24    -0.9080    1.9732    0.0254 H        1 ZINC000000103926    0.1700
25     H25    -0.3050    4.1628    0.0356 H        1 ZINC000000103926    0.1700
26     H26     5.8301    3.7971   -0.0583 H        1 ZINC000000103926    0.1800
27     H27     7.6742    5.5456   -0.0670 H        1 ZINC000000103926    0.4200
28     H28     7.9077    8.3987   -0.0371 H        1 ZINC000000103926    0.1200
29     H29     6.5197   10.4208    0.0080 H        1 ZINC000000103926    0.1300
30     H30     4.0661   10.2516    0.0446 H        1 ZINC000000103926    0.1300
31     H31     2.9753    8.0496    0.0363 H        1 ZINC000000103926    0.1200
32     H32     4.1739    1.3692   -0.0312 H        1 ZINC000000103926    0.1300
33     H33     5.1353   -0.8787   -0.0528 H        1 ZINC000000103926    0.1200
34     H34     3.6760   -2.8571   -0.0503 H        1 ZINC000000103926    0.1300
35     H35     1.2346   -2.6057   -0.0254 H        1 ZINC000000103926    0.1200
36     H36    -0.7853   -0.5705    0.0063 H        1 ZINC000000103926    0.4200
@<TRIPOS>BOND
1     1     23    1
2     1     2     2
3     1     24    1
4     2     3     1
5     2     17    1
6     3     16    1
7     3     4     2
8     4     5     1
9     4     25    1
10    5     6     1
11    6     7     1
12    6     16    2
13    7     15    1
14    7     8     2
15    8     9     1
16    8     26    1
17    9     10    1
18    9     27    1
19    10    15    ar
20    10    11    ar
21    11    12    ar
22    11    28    1
23    12    13    ar
24    12    29    1
25    13    14    ar
26    13    30    1
27    14    15    ar
28    14    31    1
29    17    22    ar
30    17    18    ar
31    18    19    ar
32    18    32    1
33    19    20    ar
34    19    33    1
35    20    21    ar
36    20    34    1
37    21    22    ar
38    21    35    1
39    22    23    1
40    23    36    1
@<TRIPOS>SUBSTRUCTURE
1   ZINC000000103926 1     RESIDUE    1   A     ZIN   1
