@<TRIPOS>MOLECULE
ZINC000006717973
  43   46    0    0    0
SMALL
USER_CHARGES
NO_NAME
@<TRIPOS>ATOM
    1 C1        0.0694     1.3267     0.8838 C.3    1 <0>       0.0200
    2 O2        0.0612    -0.0732     0.5973 O.3    1 <0>      -0.3000
    3 C3       -1.1529    -0.6746     0.4935 C.2    1 <0>       0.1000
    4 C4       -2.3780    -0.0855     0.6274 C.2    1 <0>      -0.3000
    5 C5       -3.3486    -1.0892     0.4401 C.2    1 <0>       0.2100
    6 C6       -4.8070    -0.8795     0.5009 C.2    1 <0>       0.1300
    7 C7       -5.7464    -1.8461     0.3265 C.2    1 <0>      -0.1400
    8 C8       -7.0503    -1.2030     0.4693 C.ar   1 <0>      -0.1200
    9 C9       -8.3690    -1.6625     0.3980 C.ar   1 <0>      -0.0600
   10 C10      -9.4026    -0.7883     0.5814 C.ar   1 <0>      -0.1500
   11 C11      -9.1547     0.5532     0.8380 C.ar   1 <0>      -0.0900
   12 C12      -7.8630     1.0284     0.9122 C.ar   1 <0>      -0.1300
   13 C13      -6.7943     0.1577     0.7295 C.ar   1 <0>       0.1100
   14 N14      -5.4269     0.3246     0.7490 N.pl3  1 <0>      -0.5900
   15 N15      -2.7565    -2.2483     0.2009 N.2    1 <0>      -0.4600
   16 C16      -1.4177    -2.0880     0.2084 C.2    1 <0>      -0.0100
   17 C17      -0.4641    -3.0821    -0.0047 C.2    1 <0>       0.1300
   18 C18       0.8913    -2.7395    -0.1274 C.2    1 <0>      -0.0300
   19 C19       1.9751    -3.4941     0.3100 C.2    1 <0>      -0.0700
   20 C20       1.9151    -4.8308     1.0033 C.3    1 <0>      -0.1000
   21 C21       3.1266    -2.7799    -0.0144 C.2    1 <0>      -0.2100
   22 C22       2.7482    -1.6289    -0.6292 C.2    1 <0>       0.0800
   23 C23       3.6824    -0.5647    -1.1447 C.3    1 <0>      -0.1000
   24 N24       1.3958    -1.5943    -0.7096 N.pl3  1 <0>      -0.5100
   25 H25       1.0990     1.6801     0.9398 H      1 <0>       0.1000
   26 H26      -0.4562     1.8624     0.0932 H      1 <0>       0.0600
   27 H27      -0.4285     1.5055     1.8368 H      1 <0>       0.0600
   28 H28      -2.5675     0.9567     0.8379 H      1 <0>       0.1400
   29 H29      -5.5637    -2.8906     0.1215 H      1 <0>       0.1600
   30 H30      -8.5696    -2.7047     0.1984 H      1 <0>       0.1200
   31 H31     -10.4210    -1.1437     0.5259 H      1 <0>       0.1200
   32 H32      -9.9827     1.2318     0.9807 H      1 <0>       0.1300
   33 H33      -7.6814     2.0742     1.1116 H      1 <0>       0.1200
   34 H34      -4.9697     1.1646     0.9109 H      1 <0>       0.4100
   35 H35      -0.7682    -4.1160    -0.0755 H      1 <0>       0.1600
   36 H36       1.9381    -5.6272     0.2595 H      1 <0>       0.0800
   37 H37       2.7706    -4.9324     1.6711 H      1 <0>       0.0700
   38 H38       0.9932    -4.8994     1.5808 H      1 <0>       0.0700
   39 H39       4.1420    -3.0873     0.1877 H      1 <0>       0.1500
   40 H40       3.9455    -0.7826    -2.1798 H      1 <0>       0.0800
   41 H41       3.1912     0.4069    -1.0914 H      1 <0>       0.0700
   42 H42       4.5863    -0.5487    -0.5358 H      1 <0>       0.0900
   43 H43       0.8702    -0.8810    -1.1043 H      1 <0>       0.4200
@<TRIPOS>BOND
   1    1    2 1
   2    1   25 1
   3    1   26 1
   4    1   27 1
   5    2    3 1
   6    3   16 1
   7    3    4 2
   8    4    5 1
   9    4   28 1
  10    5    6 1
  11    5   15 2
  12    6   14 1
  13    6    7 2
  14    7    8 1
  15    7   29 1
  16    8   13 ar
  17    8    9 ar
  18    9   10 ar
  19    9   30 1
  20   10   11 ar
  21   10   31 1
  22   11   12 ar
  23   11   32 1
  24   12   13 ar
  25   12   33 1
  26   13   14 1
  27   14   34 1
  28   15   16 1
  29   16   17 2
  30   17   18 1
  31   17   35 1
  32   18   24 1
  33   18   19 2
  34   19   20 1
  35   19   21 1
  36   20   36 1
  37   20   37 1
  38   20   38 1
  39   21   22 2
  40   21   39 1
  41   22   23 1
  42   22   24 1
  43   23   40 1
  44   23   41 1
  45   23   42 1
  46   24   43 1
