@<TRIPOS>MOLECULE
ZINC000000002486
30    32    1     0     0
SMALL
USER_CHARGES
@<TRIPOS>ATOM
1      N1     -0.0162    1.3436    0.0094 N.am     1 ZINC000000002486   -0.8500
2      C2      0.0021   -0.0041    0.0020 C.2      1 ZINC000000002486    0.5300
3      O3      1.0605   -0.5961   -0.0113 O.2      1 ZINC000000002486   -0.5100
4      C4     -1.2926   -0.7753    0.0102 C.3      1 ZINC000000002486    0.0800
5      H5     -1.9166   -0.4523   -0.8231 H        1 ZINC000000002486    0.1100
6      C6     -2.0311   -0.5293    1.3332 C.3      1 ZINC000000002486   -0.1500
7      C7     -3.3717   -1.2554    1.2759 C.3      1 ZINC000000002486    0.1700
8      N8     -4.3167   -0.5228    0.4237 N.am     1 ZINC000000002486   -0.7200
9      C9     -5.3497   -0.1733    1.2141 C.2      1 ZINC000000002486    0.7100
10     O10    -6.3178    0.4500    0.8250 O.2      1 ZINC000000002486   -0.5300
11     N11    -5.1906   -0.5900    2.4763 N.am     1 ZINC000000002486   -0.6800
12     C12    -4.0291   -1.2578    2.6364 C.2      1 ZINC000000002486    0.5400
13     O13    -3.6031   -1.7553    3.6566 O.2      1 ZINC000000002486   -0.4400
14     C14    -3.1940   -2.6616    0.7761 C.ar     1 ZINC000000002486   -0.1500
15     C15    -4.2040   -3.5846    0.9873 C.ar     1 ZINC000000002486   -0.1000
16     C16    -4.0688   -4.8842    0.5330 C.ar     1 ZINC000000002486    0.0800
17     F17    -5.0579   -5.7801    0.7430 F        1 ZINC000000002486   -0.1300
18     C18    -2.9188   -5.2660   -0.1365 C.ar     1 ZINC000000002486   -0.1000
19     C19    -1.9082   -4.3498   -0.3469 C.ar     1 ZINC000000002486   -0.1100
20     C20    -2.0403   -3.0436    0.1105 C.ar     1 ZINC000000002486    0.1500
21     O21    -1.0199   -2.1721   -0.1077 O.3      1 ZINC000000002486   -0.2800
22     H22     0.8172    1.8399    0.0041 H        1 ZINC000000002486    0.4100
23     H23    -0.8627    1.8171    0.0160 H        1 ZINC000000002486    0.4000
24     H24    -1.4386   -0.9166    2.1621 H        1 ZINC000000002486    0.1200
25     H25    -2.1976    0.5395    1.4677 H        1 ZINC000000002486    0.1100
26     H26    -4.2167   -0.3289   -0.5215 H        1 ZINC000000002486    0.4400
27     H27    -5.8305   -0.4309    3.1877 H        1 ZINC000000002486    0.4400
28     H28    -5.1020   -3.2885    1.5091 H        1 ZINC000000002486    0.1300
29     H29    -2.8125   -6.2797   -0.4935 H        1 ZINC000000002486    0.1500
30     H30    -1.0115   -4.6486   -0.8694 H        1 ZINC000000002486    0.1500
@<TRIPOS>BOND
1     1     2     am
2     1     22    1
3     1     23    1
4     2     3     2
5     2     4     1
6     4     5     1
7     4     21    1
8     4     6     1
9     6     7     1
10    6     24    1
11    6     25    1
12    7     12    1
13    7     8     1
14    7     14    1
15    8     9     am
16    8     26    1
17    9     10    2
18    9     11    am
19    11    12    am
20    11    27    1
21    12    13    2
22    14    20    ar
23    14    15    ar
24    15    16    ar
25    15    28    1
26    16    17    1
27    16    18    ar
28    18    19    ar
29    18    29    1
30    19    20    ar
31    19    30    1
32    20    21    1
@<TRIPOS>SUBSTRUCTURE
1   ZINC000000002486 1     RESIDUE    1   A     ZIN   1
