@<TRIPOS>MOLECULE
ZINC000049113091
  63   66    0    0    0
SMALL
USER_CHARGES
NO_NAME
@<TRIPOS>ATOM
    1 C1        3.5730    -3.8808     4.3739 C.3    1 <0>      -0.0600
    2 N2        3.9981    -2.5687     3.8682 N.4    1 <0>      -0.3900
    3 H3        4.4623    -2.0587     4.6047 H      1 <0>       0.4300
    4 C4        4.9236    -2.7542     2.7426 C.3    1 <0>      -0.0500
    5 C5        2.8220    -1.8138     3.4158 C.3    1 <0>      -0.0100
    6 C6        1.9179    -1.5126     4.6128 C.3    1 <0>      -0.1500
    7 C7        0.6929    -0.7263     4.1416 C.3    1 <0>      -0.0800
    8 C8       -0.2574    -0.5376     5.2959 C.ar   1 <0>      -0.1000
    9 C9       -0.1905     0.6151     6.0991 C.ar   1 <0>      -0.0200
   10 C10       0.7478     1.6321     5.8712 C.ar   1 <0>      -0.1300
   11 C11       0.7626     2.7251     6.6840 C.ar   1 <0>      -0.0700
   12 C12      -0.1401     2.8481     7.7389 C.ar   1 <0>      -0.1000
   13 C13      -1.0647     1.8804     7.9895 C.ar   1 <0>      -0.0800
   14 C14      -1.1106     0.7395     7.1728 C.ar   1 <0>      -0.1000
   15 C15      -2.0415    -0.2904     7.3821 C.ar   1 <0>       0.1800
   16 N16      -2.0463    -1.3383     6.5916 N.ar   1 <0>      -0.4800
   17 C17      -1.2020    -1.4772     5.5789 C.ar   1 <0>       0.0500
   18 C18      -1.2819    -2.7155     4.7238 C.3    1 <0>       0.0500
   19 N19      -2.1219    -2.4460     3.5492 N.4    1 <0>      -0.3800
   20 H20      -1.7741    -1.6308     3.0669 H      1 <0>       0.4300
   21 C21      -3.5054    -2.2063     3.9811 C.3    1 <0>      -0.0400
   22 C22      -2.0848    -3.6029     2.6447 C.3    1 <0>       0.1000
   23 H23      -1.0502    -3.8162     2.3762 H      1 <0>       0.1400
   24 C24      -2.6813    -4.8165     3.3546 C.3    1 <0>      -0.1500
   25 C25      -2.8295    -5.9514     2.3346 C.3    1 <0>      -0.1100
   26 C26      -3.9383    -5.5751     1.3534 C.3    1 <0>      -0.1000
   27 C27      -3.7087    -4.1942     0.8011 C.ar   1 <0>      -0.0800
   28 C28      -4.3839    -3.8355    -0.3614 C.ar   1 <0>      -0.0700
   29 C29      -4.1906    -2.5673    -0.8823 C.ar   1 <0>      -0.1300
   30 C30      -3.3345    -1.7015    -0.2288 C.ar   1 <0>       0.1100
   31 N31      -2.7110    -2.0760     0.8673 N.ar   1 <0>      -0.5000
   32 C32      -2.8666    -3.2833     1.3964 C.ar   1 <0>       0.0600
   33 H33       3.0715    -4.4318     3.5783 H      1 <0>       0.1200
   34 H34       4.4457    -4.4410     4.7096 H      1 <0>       0.1300
   35 H35       2.8863    -3.7431     5.2091 H      1 <0>       0.1200
   36 H36       4.4221    -3.3052     1.9469 H      1 <0>       0.1200
   37 H37       5.2390    -1.7807     2.3673 H      1 <0>       0.1300
   38 H38       5.7963    -3.3144     3.0782 H      1 <0>       0.1300
   39 H39       3.1444    -0.8779     2.9595 H      1 <0>       0.1400
   40 H40       2.2709    -2.4040     2.6837 H      1 <0>       0.1300
   41 H41       1.5954    -2.4485     5.0691 H      1 <0>       0.0900
   42 H42       2.4689    -0.9224     5.3449 H      1 <0>       0.1000
   43 H43       1.0082     0.2478     3.7676 H      1 <0>       0.1100
   44 H44       0.1922    -1.2766     3.3451 H      1 <0>       0.0700
   45 H45       1.4535     1.5493     5.0578 H      1 <0>       0.1300
   46 H46       1.4851     3.5084     6.5086 H      1 <0>       0.1400
   47 H47      -0.1054     3.7252     8.3680 H      1 <0>       0.1400
   48 H48      -1.7576     1.9897     8.8107 H      1 <0>       0.1500
   49 H49      -2.7522    -0.2207     8.1924 H      1 <0>       0.1800
   50 H50      -0.2807    -2.9971     4.3976 H      1 <0>       0.1300
   51 H51      -1.7177    -3.5296     5.3030 H      1 <0>       0.1500
   52 H52      -3.5555    -1.2697     4.5364 H      1 <0>       0.1200
   53 H53      -4.1536    -2.1455     3.1069 H      1 <0>       0.1200
   54 H54      -3.8335    -3.0258     4.6205 H      1 <0>       0.1300
   55 H55      -2.0183    -5.1321     4.1601 H      1 <0>       0.1000
   56 H56      -3.6594    -4.5590     3.7609 H      1 <0>       0.1000
   57 H57      -1.8917    -6.0851     1.7952 H      1 <0>       0.0800
   58 H58      -3.0926    -6.8755     2.8492 H      1 <0>       0.1000
   59 H59      -3.9514    -6.2928     0.5331 H      1 <0>       0.1000
   60 H60      -4.8985    -5.6012     1.8686 H      1 <0>       0.1000
   61 H61      -5.0471    -4.5345    -0.8493 H      1 <0>       0.1500
   62 H62      -4.6998    -2.2602    -1.7839 H      1 <0>       0.1500
   63 H63      -3.1755    -0.7082    -0.6218 H      1 <0>       0.1700
@<TRIPOS>BOND
   1    1    2 1
   2    1   33 1
   3    1   34 1
   4    1   35 1
   5    2    3 1
   6    2    4 1
   7    2    5 1
   8    4   36 1
   9    4   37 1
  10    4   38 1
  11    5    6 1
  12    5   39 1
  13    5   40 1
  14    6    7 1
  15    6   41 1
  16    6   42 1
  17    7    8 1
  18    7   43 1
  19    7   44 1
  20    8   17 ar
  21    8    9 ar
  22    9   14 ar
  23    9   10 ar
  24   10   11 ar
  25   10   45 1
  26   11   12 ar
  27   11   46 1
  28   12   13 ar
  29   12   47 1
  30   13   14 ar
  31   13   48 1
  32   14   15 ar
  33   15   16 ar
  34   15   49 1
  35   16   17 ar
  36   17   18 1
  37   18   19 1
  38   18   50 1
  39   18   51 1
  40   19   20 1
  41   19   21 1
  42   19   22 1
  43   21   52 1
  44   21   53 1
  45   21   54 1
  46   22   23 1
  47   22   32 1
  48   22   24 1
  49   24   25 1
  50   24   55 1
  51   24   56 1
  52   25   26 1
  53   25   57 1
  54   25   58 1
  55   26   27 1
  56   26   59 1
  57   26   60 1
  58   27   32 ar
  59   27   28 ar
  60   28   29 ar
  61   28   61 1
  62   29   30 ar
  63   29   62 1
  64   30   31 ar
  65   30   63 1
  66   31   32 ar
