@<TRIPOS>MOLECULE
ZINC000085597499
67    69    1     0     0
SMALL
USER_CHARGES
@<TRIPOS>ATOM
1      C1     -0.3092    1.4911    0.0413 C.3      1 ZINC000085597499   -0.1600
2      C2     -0.1696   -0.0322    0.0716 C.3      1 ZINC000085597499   -0.1300
3      C3     -1.5558   -0.6733   -0.0198 C.3      1 ZINC000085597499   -0.1700
4      C4     -1.4098   -2.1938   -0.1069 C.3      1 ZINC000085597499    0.0700
5      H5     -0.7328   -2.4477   -0.9226 H        1 ZINC000085597499    0.1400
6      C6     -2.7798   -2.8237   -0.3664 C.3      1 ZINC000085597499   -0.2000
7      C7     -2.6192   -4.3076   -0.5742 C.2      1 ZINC000085597499    0.3500
8      O8     -1.5222   -4.8096   -0.5204 O.2      1 ZINC000085597499   -0.4200
9      C9     -3.8275   -5.1651   -0.8493 C.3      1 ZINC000085597499   -0.1700
10     C10    -3.3911   -6.6216   -1.0201 C.3      1 ZINC000085597499   -0.0700
11     C11    -4.5995   -7.4791   -1.2952 C.ar     1 ZINC000085597499   -0.0600
12     C12    -5.2957   -8.0467   -0.2448 C.ar     1 ZINC000085597499   -0.1400
13     C13    -6.4049   -8.8347   -0.4920 C.ar     1 ZINC000085597499   -0.1000
14     C14    -6.8206   -9.0562   -1.7947 C.ar     1 ZINC000085597499    0.0800
15     O15    -7.9114   -9.8306   -2.0395 O.3      1 ZINC000085597499   -0.4800
16     C16    -6.1197   -8.4843   -2.8525 C.ar     1 ZINC000085597499    0.1100
17     O17    -6.5242   -8.6985   -4.1331 O.3      1 ZINC000085597499   -0.3000
18     C18    -5.7569   -8.0799   -5.1679 C.3      1 ZINC000085597499    0.1000
19     C19    -6.3503   -8.4270   -6.5090 C.ar     1 ZINC000085597499   -0.1000
20     C20    -5.9146   -9.5694   -7.1771 C.ar     1 ZINC000085597499   -0.0900
21     C21    -6.4302   -9.9116   -8.3895 C.ar     1 ZINC000085597499   -0.1000
22     C22    -7.4169   -9.1028   -8.9789 C.ar     1 ZINC000085597499   -0.0300
23     C23    -7.9721   -9.4248  -10.2283 C.ar     1 ZINC000085597499   -0.1400
24     C24    -8.9294   -8.6155  -10.7703 C.ar     1 ZINC000085597499    0.1200
25     O25    -9.4658   -8.9281  -11.9791 O.3      1 ZINC000085597499   -0.5000
26     C26    -9.3653   -7.4695  -10.0975 C.ar     1 ZINC000085597499   -0.1400
27     C27    -8.8477   -7.1304   -8.8867 C.ar     1 ZINC000085597499   -0.0900
28     C28    -7.8601   -7.9404   -8.2990 C.ar     1 ZINC000085597499   -0.0700
29     C29    -7.3079   -7.6227   -7.0469 C.ar     1 ZINC000085597499   -0.0700
30     C30    -5.0125   -7.6917   -2.5977 C.ar     1 ZINC000085597499   -0.1900
31     O31    -0.8815   -2.6929    1.1235 O.3      1 ZINC000085597499   -0.3300
32     C32    -1.1631   -1.8664    2.2547 C.3      1 ZINC000085597499    0.1300
33     N33    -2.5738   -2.0201    2.6344 N.4      1 ZINC000085597499   -0.5400
34     H34    -3.1614   -1.7737    1.8521 H        1 ZINC000085597499    0.4200
35     H35    -2.7487   -2.9783    2.8977 H        1 ZINC000085597499    0.4300
36     C36    -2.8743   -1.1376    3.7697 C.3      1 ZINC000085597499   -0.0500
37     H37     0.6783    1.9478    0.1064 H        1 ZINC000085597499    0.0700
38     H38    -0.7887    1.7935   -0.8897 H        1 ZINC000085597499    0.0600
39     H39    -0.9167    1.8172    0.8855 H        1 ZINC000085597499    0.0500
40     H40     0.4379   -0.3583   -0.7726 H        1 ZINC000085597499    0.0800
41     H41     0.3099   -0.3347    1.0026 H        1 ZINC000085597499    0.0700
42     H42    -2.1352   -0.4141    0.8664 H        1 ZINC000085597499    0.0600
43     H43    -2.0681   -0.3060   -0.9090 H        1 ZINC000085597499    0.1000
44     H44    -3.4299   -2.6451    0.4900 H        1 ZINC000085597499    0.0800
45     H45    -3.2218   -2.3778   -1.2574 H        1 ZINC000085597499    0.1300
46     H46    -4.5240   -5.0901   -0.0142 H        1 ZINC000085597499    0.1000
47     H47    -4.3159   -4.8228   -1.7617 H        1 ZINC000085597499    0.1000
48     H48    -2.6946   -6.6967   -1.8552 H        1 ZINC000085597499    0.0800
49     H49    -2.9027   -6.9639   -0.1077 H        1 ZINC000085597499    0.0800
50     H50    -4.9726   -7.8747    0.7713 H        1 ZINC000085597499    0.1300
51     H51    -6.9468   -9.2776    0.3305 H        1 ZINC000085597499    0.1400
52     H52    -8.7441   -9.3397   -2.0668 H        1 ZINC000085597499    0.3900
53     H53    -5.7708   -6.9983   -5.0334 H        1 ZINC000085597499    0.0700
54     H54    -4.7287   -8.4386   -5.1217 H        1 ZINC000085597499    0.0700
55     H55    -5.1562  -10.1925   -6.7265 H        1 ZINC000085597499    0.1300
56     H56    -6.0826  -10.7999   -8.8961 H        1 ZINC000085597499    0.1300
57     H57    -7.6437  -10.3071  -10.7575 H        1 ZINC000085597499    0.1400
58     H58   -10.2492   -9.4928  -11.9276 H        1 ZINC000085597499    0.4000
59     H59   -10.1235   -6.8449  -10.5462 H        1 ZINC000085597499    0.1300
60     H60    -9.1935   -6.2423   -8.3787 H        1 ZINC000085597499    0.1300
61     H61    -7.6386   -6.7426   -6.5155 H        1 ZINC000085597499    0.1300
62     H62    -4.4669   -7.2467   -3.4166 H        1 ZINC000085597499    0.1300
63     H63    -0.5278   -2.1637    3.0890 H        1 ZINC000085597499    0.1700
64     H64    -0.9664   -0.8246    2.0015 H        1 ZINC000085597499    0.1400
65     H65    -2.2394   -1.4039    4.6148 H        1 ZINC000085597499    0.1300
66     H66    -2.6853   -0.1025    3.4852 H        1 ZINC000085597499    0.1200
67     H67    -3.9210   -1.2517    4.0514 H        1 ZINC000085597499    0.1300
@<TRIPOS>BOND
1     1     2     1
2     1     37    1
3     1     38    1
4     1     39    1
5     2     3     1
6     2     40    1
7     2     41    1
8     3     4     1
9     3     42    1
10    3     43    1
11    4     5     1
12    4     6     1
13    4     31    1
14    6     7     1
15    6     44    1
16    6     45    1
17    7     8     2
18    7     9     1
19    9     10    1
20    9     46    1
21    9     47    1
22    10    11    1
23    10    48    1
24    10    49    1
25    11    30    ar
26    11    12    ar
27    12    13    ar
28    12    50    1
29    13    14    ar
30    13    51    1
31    14    15    1
32    14    16    ar
33    15    52    1
34    16    17    1
35    16    30    ar
36    17    18    1
37    18    19    1
38    18    53    1
39    18    54    1
40    19    29    ar
41    19    20    ar
42    20    21    ar
43    20    55    1
44    21    22    ar
45    21    56    1
46    22    28    ar
47    22    23    ar
48    23    24    ar
49    23    57    1
50    24    25    1
51    24    26    ar
52    25    58    1
53    26    27    ar
54    26    59    1
55    27    28    ar
56    27    60    1
57    28    29    ar
58    29    61    1
59    30    62    1
60    31    32    1
61    32    33    1
62    32    63    1
63    32    64    1
64    33    34    1
65    33    35    1
66    33    36    1
67    36    65    1
68    36    66    1
69    36    67    1
@<TRIPOS>SUBSTRUCTURE
1   ZINC000085597499 1     RESIDUE    1   A     ZIN   1
