@<TRIPOS>MOLECULE
ZINC000053255341
104   105   1     0     0
SMALL
USER_CHARGES
@<TRIPOS>ATOM
1      C1     -0.0187    1.5258    0.0104 C.3      1 ZINC000053255341   -0.1500
2      C2      0.0021   -0.0041    0.0020 C.3      1 ZINC000053255341   -0.0900
3      C3      0.7421   -0.5109    1.2415 C.3      1 ZINC000053255341   -0.1400
4      C4     -1.4333   -0.5336    0.0129 C.3      1 ZINC000053255341   -0.1200
5      C5     -1.4157   -2.0577   -0.1212 C.3      1 ZINC000053255341    0.1300
6      H6     -0.7891   -2.4841    0.6622 H        1 ZINC000053255341    0.1100
7      N7     -0.8765   -2.4263   -1.4325 N.am     1 ZINC000053255341   -0.7000
8      C8      0.4560   -2.5245   -1.6099 C.2      1 ZINC000053255341    0.5100
9      O9      1.2086   -2.3077   -0.6839 O.2      1 ZINC000053255341   -0.5300
10     C10     1.0106   -2.9037   -2.9588 C.3      1 ZINC000053255341    0.1400
11     H11     0.6999   -2.1669   -3.6996 H        1 ZINC000053255341    0.1200
12     C12     0.4819   -4.2828   -3.3583 C.3      1 ZINC000053255341   -0.0900
13     C13     0.9365   -4.6090   -4.7576 C.ar     1 ZINC000053255341   -0.0600
14     C14     0.1567   -4.2462   -5.8398 C.ar     1 ZINC000053255341   -0.1000
15     C15     0.5737   -4.5455   -7.1234 C.ar     1 ZINC000053255341   -0.1100
16     C16     1.7706   -5.2071   -7.3247 C.ar     1 ZINC000053255341   -0.1200
17     C17     2.5508   -5.5691   -6.2425 C.ar     1 ZINC000053255341   -0.1200
18     C18     2.1359   -5.2660   -4.9592 C.ar     1 ZINC000053255341   -0.1100
19     N19     2.4736   -2.9421   -2.8921 N.am     1 ZINC000053255341   -0.7000
20     C20     3.2043   -2.7558   -4.0091 C.2      1 ZINC000053255341    0.5100
21     O21     2.6507   -2.5564   -5.0696 O.2      1 ZINC000053255341   -0.5100
22     C22     4.7092   -2.7954   -3.9404 C.3      1 ZINC000053255341    0.1000
23     N23     5.2652   -2.5668   -5.2764 N.am     1 ZINC000053255341   -0.7000
24     C24     6.6006   -2.5585   -5.4582 C.2      1 ZINC000053255341    0.5100
25     O25     7.3421   -2.7403   -4.5157 O.2      1 ZINC000053255341   -0.5400
26     C26     7.1726   -2.3235   -6.8325 C.3      1 ZINC000053255341    0.1300
27     H27     6.8193   -3.1002   -7.5108 H        1 ZINC000053255341    0.1300
28     C28     6.7212   -0.9545   -7.3454 C.3      1 ZINC000053255341   -0.1700
29     N29     8.6356   -2.3619   -6.7657 N.am     1 ZINC000053255341   -0.6800
30     C30     9.3521   -2.6803   -7.8619 C.2      1 ZINC000053255341    0.5100
31     O31     8.7857   -2.9349   -8.9037 O.2      1 ZINC000053255341   -0.5200
32     C32    10.8570   -2.7198   -7.7932 C.3      1 ZINC000053255341    0.0200
33     H33    11.1659   -3.1645   -6.8473 H        1 ZINC000053255341    0.1700
34     N34    11.3770   -3.5254   -8.9061 N.4      1 ZINC000053255341   -0.6200
35     H35    12.3846   -3.5519   -8.8601 H        1 ZINC000053255341    0.4400
36     H36    11.0125   -4.4641   -8.8408 H        1 ZINC000053255341    0.4400
37     H37    11.0910   -3.1137   -9.7817 H        1 ZINC000053255341    0.4400
38     C38    11.4096   -1.2965   -7.8922 C.3      1 ZINC000053255341   -0.0900
39     C39    12.9041   -1.3234   -7.7006 C.ar     1 ZINC000053255341   -0.1400
40     C40    13.4395   -1.2016   -6.4317 C.ar     1 ZINC000053255341   -0.0800
41     C41    14.8092   -1.2260   -6.2534 C.ar     1 ZINC000053255341   -0.1300
42     C42    15.6476   -1.3733   -7.3489 C.ar     1 ZINC000053255341    0.1300
43     O43    16.9953   -1.3981   -7.1761 O.3      1 ZINC000053255341   -0.4900
44     C44    15.1079   -1.4958   -8.6210 C.ar     1 ZINC000053255341   -0.1400
45     C45    13.7373   -1.4756   -8.7934 C.ar     1 ZINC000053255341   -0.1200
46     C46    -2.8192   -2.5900    0.0125 C.2      1 ZINC000053255341    0.5100
47     O47    -3.3197   -3.2157   -0.8979 O.2      1 ZINC000053255341   -0.5400
48     N48    -3.5181   -2.3707    1.1439 N.am     1 ZINC000053255341   -0.6900
49     C49    -4.8824   -2.8882    1.2739 C.3      1 ZINC000053255341    0.0800
50     H50    -4.9577   -3.8471    0.7611 H        1 ZINC000053255341    0.0900
51     C51    -5.2184   -3.0741    2.7549 C.3      1 ZINC000053255341   -0.1100
52     C52    -4.3164   -4.1569    3.3506 C.3      1 ZINC000053255341   -0.1300
53     C53    -4.6523   -4.3427    4.8316 C.3      1 ZINC000053255341    0.0900
54     N54    -3.7886   -5.3795    5.4019 N.pl3    1 ZINC000053255341   -0.6900
55     C55    -3.9082   -5.7198    6.7214 C.cat    1 ZINC000053255341    0.7400
56     N56    -4.8100   -5.1085    7.4877 N.pl3    1 ZINC000053255341   -0.7900
57     N57    -3.1229   -6.6624    7.2399 N.pl3    1 ZINC000053255341   -0.8000
58     H58    -3.2077   -6.9037    8.1755 H        1 ZINC000053255341    0.4400
59     H59    -2.4662   -7.1076    6.6818 H        1 ZINC000053255341    0.4400
60     C60    -5.8509   -1.9117    0.6578 C.2      1 ZINC000053255341    0.4900
61     O61    -6.8895   -2.3139    0.1618 O.co2    1 ZINC000053255341   -0.6900
62     O62    -5.5958   -0.7195    0.6554 O.co2    1 ZINC000053255341   -0.6800
63     H63     1.0039    1.9031    0.0027 H        1 ZINC000053255341    0.0500
64     H64    -0.5459    1.8868   -0.8726 H        1 ZINC000053255341    0.0500
65     H65    -0.5289    1.8773    0.9072 H        1 ZINC000053255341    0.0500
66     H66     0.5123   -0.3556   -0.8948 H        1 ZINC000053255341    0.0700
67     H67     0.7568   -1.6008    1.2356 H        1 ZINC000053255341    0.0700
68     H68     1.7647   -0.1336    1.2338 H        1 ZINC000053255341    0.0500
69     H69     0.2319   -0.1594    2.1383 H        1 ZINC000053255341    0.0400
70     H70    -1.9156   -0.2570    0.9504 H        1 ZINC000053255341    0.0800
71     H71    -1.9862   -0.1019   -0.8214 H        1 ZINC000053255341    0.0800
72     H72    -1.4784   -2.5997   -2.1731 H        1 ZINC000053255341    0.4100
73     H73     0.8659   -5.0332   -2.6673 H        1 ZINC000053255341    0.0800
74     H74    -0.6074   -4.2788   -3.3218 H        1 ZINC000053255341    0.0900
75     H75    -0.7784   -3.7293   -5.6826 H        1 ZINC000053255341    0.1200
76     H76    -0.0359   -4.2627   -7.9689 H        1 ZINC000053255341    0.1200
77     H77     2.0960   -5.4415   -8.3275 H        1 ZINC000053255341    0.1200
78     H78     3.4857   -6.0863   -6.3998 H        1 ZINC000053255341    0.1100
79     H79     2.7454   -5.5488   -4.1137 H        1 ZINC000053255341    0.1100
80     H80     2.9164   -3.1016   -2.0439 H        1 ZINC000053255341    0.4100
81     H81     5.0625   -2.0187   -3.2621 H        1 ZINC000053255341    0.1000
82     H82     5.0308   -3.7706   -3.5750 H        1 ZINC000053255341    0.1000
83     H83     4.6722   -2.4215   -6.0302 H        1 ZINC000053255341    0.4200
84     H84     7.1349   -0.7845   -8.3394 H        1 ZINC000053255341    0.0800
85     H85     5.6327   -0.9259   -7.3951 H        1 ZINC000053255341    0.0900
86     H86     7.0745   -0.1778   -6.6671 H        1 ZINC000053255341    0.0700
87     H87     9.0885   -2.1582   -5.9325 H        1 ZINC000053255341    0.4200
88     H88    11.1764   -0.8837   -8.8737 H        1 ZINC000053255341    0.1100
89     H89    10.9554   -0.6758   -7.1198 H        1 ZINC000053255341    0.1300
90     H90    12.7864   -1.0870   -5.5792 H        1 ZINC000053255341    0.1400
91     H91    15.2270   -1.1301   -5.2621 H        1 ZINC000053255341    0.1400
92     H92    17.3570   -2.2829   -7.0298 H        1 ZINC000053255341    0.4000
93     H93    15.7584   -1.6103   -9.4754 H        1 ZINC000053255341    0.1400
94     H94    13.3166   -1.5713   -9.7835 H        1 ZINC000053255341    0.1300
95     H95    -3.1177   -1.8703    1.8720 H        1 ZINC000053255341    0.3900
96     H96    -5.0574   -2.1352    3.2846 H        1 ZINC000053255341    0.0700
97     H97    -6.2615   -3.3740    2.8560 H        1 ZINC000053255341    0.0900
98     H98    -4.4774   -5.0958    2.8208 H        1 ZINC000053255341    0.0800
99     H99    -3.2733   -3.8569    3.2495 H        1 ZINC000053255341    0.0800
100    H100   -4.4913   -3.4038    5.3613 H        1 ZINC000053255341    0.0900
101    H101   -5.6954   -4.6427    4.9327 H        1 ZINC000053255341    0.0900
102    H102   -3.1319   -5.8247    4.8438 H        1 ZINC000053255341    0.4300
103    H103   -5.3818   -4.4220    7.1101 H        1 ZINC000053255341    0.4400
104    H104   -4.8948   -5.3498    8.4233 H        1 ZINC000053255341    0.4400
@<TRIPOS>BOND
1     1     2     1
2     1     63    1
3     1     64    1
4     1     65    1
5     2     3     1
6     2     4     1
7     2     66    1
8     3     67    1
9     3     68    1
10    3     69    1
11    4     5     1
12    4     70    1
13    4     71    1
14    5     6     1
15    5     7     1
16    5     46    1
17    7     8     am
18    7     72    1
19    8     9     2
20    8     10    1
21    10    11    1
22    10    12    1
23    10    19    1
24    12    13    1
25    12    73    1
26    12    74    1
27    13    18    ar
28    13    14    ar
29    14    15    ar
30    14    75    1
31    15    16    ar
32    15    76    1
33    16    17    ar
34    16    77    1
35    17    18    ar
36    17    78    1
37    18    79    1
38    19    20    am
39    19    80    1
40    20    21    2
41    20    22    1
42    22    23    1
43    22    81    1
44    22    82    1
45    23    24    am
46    23    83    1
47    24    25    2
48    24    26    1
49    26    27    1
50    26    28    1
51    26    29    1
52    28    84    1
53    28    85    1
54    28    86    1
55    29    30    am
56    29    87    1
57    30    31    2
58    30    32    1
59    32    33    1
60    32    34    1
61    32    38    1
62    34    35    1
63    34    36    1
64    34    37    1
65    38    39    1
66    38    88    1
67    38    89    1
68    39    45    ar
69    39    40    ar
70    40    41    ar
71    40    90    1
72    41    42    ar
73    41    91    1
74    42    43    1
75    42    44    ar
76    43    92    1
77    44    45    ar
78    44    93    1
79    45    94    1
80    46    47    2
81    46    48    am
82    48    49    1
83    48    95    1
84    49    50    1
85    49    51    1
86    49    60    1
87    51    52    1
88    51    96    1
89    51    97    1
90    52    53    1
91    52    98    1
92    52    99    1
93    53    54    1
94    53    100   1
95    53    101   1
96    54    55    ar
97    54    102   1
98    55    56    ar
99    55    57    ar
100   56    103   1
101   56    104   1
102   57    58    1
103   57    59    1
104   60    61    ar
105   60    62    ar
@<TRIPOS>SUBSTRUCTURE
1   ZINC000053255341 1     RESIDUE    1   A     ZIN   1
