@<TRIPOS>MOLECULE
ZINC000000338037
34    36    1     0     0
SMALL
USER_CHARGES
@<TRIPOS>ATOM
1      C1     -0.0173    1.4248    0.0099 C.3      1 ZINC000000338037    0.0200
2      O2      0.0021   -0.0041    0.0020 O.3      1 ZINC000000338037   -0.2800
3      C3      0.6245   -0.6171    1.0393 C.ar     1 ZINC000000338037    0.2400
4      C4      1.2006    0.1337    2.0483 C.ar     1 ZINC000000338037   -0.2900
5      C5      1.8390   -0.4984    3.1084 C.ar     1 ZINC000000338037    0.2200
6      O6      2.3986    0.2459    4.0951 O.3      1 ZINC000000338037   -0.4900
7      C7      1.9097   -1.8842    3.1686 C.ar     1 ZINC000000338037   -0.2300
8      C8      1.3414   -2.6544    2.1693 C.ar     1 ZINC000000338037    0.2400
9      C9      0.6839   -2.0184    1.1000 C.ar     1 ZINC000000338037   -0.3000
10     C10     0.0695   -2.8398    0.0512 C.2      1 ZINC000000338037    0.4000
11     O11    -0.6903   -2.3653   -0.7678 O.2      1 ZINC000000338037   -0.4300
12     C12     0.4324   -4.3139    0.0432 C.3      1 ZINC000000338037   -0.1900
13     C13     0.4675   -4.7808    1.5058 C.3      1 ZINC000000338037    0.1500
14     H14    -0.5180   -4.6506    1.9529 H        1 ZINC000000338037    0.0900
15     C15     0.8562   -6.2358    1.5601 C.ar     1 ZINC000000338037   -0.0900
16     C16     2.1910   -6.5952    1.5579 C.ar     1 ZINC000000338037   -0.0900
17     C17     2.5476   -7.9298    1.6077 C.ar     1 ZINC000000338037   -0.1200
18     C18     1.5693   -8.9051    1.6602 C.ar     1 ZINC000000338037   -0.1100
19     C19     0.2345   -8.5456    1.6633 C.ar     1 ZINC000000338037   -0.1200
20     C20    -0.1220   -7.2108    1.6178 C.ar     1 ZINC000000338037   -0.1000
21     O21     1.4199   -4.0045    2.2293 O.3      1 ZINC000000338037   -0.3000
22     H22     1.0053    1.8021    0.0021 H        1 ZINC000000338037    0.0600
23     H23    -0.5445    1.7859   -0.8732 H        1 ZINC000000338037    0.1100
24     H24    -0.5275    1.7763    0.9067 H        1 ZINC000000338037    0.0600
25     H25     1.1544    1.2121    2.0119 H        1 ZINC000000338037    0.1400
26     H26     1.7991    0.4419    4.8281 H        1 ZINC000000338037    0.4000
27     H27     2.4102   -2.3621    3.9977 H        1 ZINC000000338037    0.1500
28     H28    -0.3193   -4.8783   -0.5087 H        1 ZINC000000338037    0.1100
29     H29     1.4120   -4.4526   -0.4144 H        1 ZINC000000338037    0.1200
30     H30     2.9553   -5.8332    1.5168 H        1 ZINC000000338037    0.1300
31     H31     3.5904   -8.2106    1.6052 H        1 ZINC000000338037    0.1300
32     H32     1.8478   -9.9478    1.6984 H        1 ZINC000000338037    0.1300
33     H33    -0.5298   -9.3076    1.7040 H        1 ZINC000000338037    0.1300
34     H34    -1.1648   -6.9300    1.6203 H        1 ZINC000000338037    0.1300
@<TRIPOS>BOND
1     1     2     1
2     1     22    1
3     1     23    1
4     1     24    1
5     2     3     1
6     3     9     ar
7     3     4     ar
8     4     5     ar
9     4     25    1
10    5     6     1
11    5     7     ar
12    6     26    1
13    7     8     ar
14    7     27    1
15    8     21    1
16    8     9     ar
17    9     10    1
18    10    11    2
19    10    12    1
20    12    13    1
21    12    28    1
22    12    29    1
23    13    14    1
24    13    15    1
25    13    21    1
26    15    20    ar
27    15    16    ar
28    16    17    ar
29    16    30    1
30    17    18    ar
31    17    31    1
32    18    19    ar
33    18    32    1
34    19    20    ar
35    19    33    1
36    20    34    1
@<TRIPOS>SUBSTRUCTURE
1   ZINC000000338037 1     RESIDUE    1   A     ZIN   1
