@<TRIPOS>MOLECULE
ZINC000000600292
36    38    1     0     0
SMALL
USER_CHARGES
@<TRIPOS>ATOM
1      C1      0.7713    1.4359    0.3661 C.3      1 ZINC000000600292    0.0200
2      O2      0.8088    0.0074    0.3652 O.3      1 ZINC000000600292   -0.3000
3      C3      1.2154   -0.5982   -0.7808 C.ar     1 ZINC000000600292    0.1600
4      C4      1.2675   -1.9976   -0.8447 C.ar     1 ZINC000000600292    0.1100
5      O5      0.9105   -2.7340    0.2412 O.3      1 ZINC000000600292   -0.3000
6      C6      0.9848   -4.1554    0.1141 C.3      1 ZINC000000600292    0.0200
7      C7      1.6726   -2.6297   -1.9860 C.ar     1 ZINC000000600292   -0.1500
8      C8      2.0399   -1.8725   -3.1047 C.ar     1 ZINC000000600292   -0.1800
9      C9      1.9898   -0.4576   -3.0476 C.ar     1 ZINC000000600292    0.2000
10     C10     1.5666    0.1692   -1.8693 C.ar     1 ZINC000000600292   -0.1800
11     N11     2.3468    0.2447   -4.1344 N.ar     1 ZINC000000600292   -0.5400
12     C12     2.7341   -0.3707   -5.2262 C.ar     1 ZINC000000600292    0.3400
13     N13     2.7967   -1.6890   -5.3256 N.ar     1 ZINC000000600292   -0.5800
14     C14     2.4662   -2.4773   -4.3111 C.ar     1 ZINC000000600292    0.4600
15     N15     2.5367   -3.8511   -4.4289 N.pl3    1 ZINC000000600292   -0.6400
16     C16     3.0736   -4.4269   -5.5838 C.ar     1 ZINC000000600292    0.1600
17     C17     2.5528   -5.6173   -6.0747 C.ar     1 ZINC000000600292   -0.1300
18     C18     3.0853   -6.1841   -7.2162 C.ar     1 ZINC000000600292   -0.0900
19     C19     4.1359   -5.5680   -7.8706 C.ar     1 ZINC000000600292   -0.1100
20     C20     4.6578   -4.3820   -7.3843 C.ar     1 ZINC000000600292   -0.0700
21     Br21    6.0947   -3.5434   -8.2830 Br       1 ZINC000000600292   -0.0400
22     C22     4.1254   -3.8068   -6.2464 C.ar     1 ZINC000000600292   -0.0800
23     H23     1.7695    1.8257    0.1671 H        1 ZINC000000600292    0.0600
24     H24     0.0854    1.7818   -0.4072 H        1 ZINC000000600292    0.0600
25     H25     0.4303    1.7898    1.3390 H        1 ZINC000000600292    0.1100
26     H26     0.3272   -4.4831   -0.6910 H        1 ZINC000000600292    0.0600
27     H27     2.0103   -4.4468   -0.1131 H        1 ZINC000000600292    0.0600
28     H28     0.6737   -4.6206    1.0495 H        1 ZINC000000600292    0.1100
29     H29     1.7096   -3.7084   -2.0249 H        1 ZINC000000600292    0.1400
30     H30     1.5235    1.2468   -1.8117 H        1 ZINC000000600292    0.1600
31     H31     3.0141    0.2250   -6.0824 H        1 ZINC000000600292    0.2000
32     H32     2.2137   -4.4167   -3.7101 H        1 ZINC000000600292    0.4200
33     H33     1.7324   -6.0995   -5.5640 H        1 ZINC000000600292    0.1300
34     H34     2.6808   -7.1099   -7.5979 H        1 ZINC000000600292    0.1400
35     H35     4.5503   -6.0134   -8.7629 H        1 ZINC000000600292    0.1300
36     H36     4.5326   -2.8812   -5.8672 H        1 ZINC000000600292    0.1500
@<TRIPOS>BOND
1     1     2     1
2     1     23    1
3     1     24    1
4     1     25    1
5     2     3     1
6     3     10    ar
7     3     4     ar
8     4     5     1
9     4     7     ar
10    5     6     1
11    6     26    1
12    6     27    1
13    6     28    1
14    7     8     ar
15    7     29    1
16    8     14    ar
17    8     9     ar
18    9     10    ar
19    9     11    ar
20    10    30    1
21    11    12    ar
22    12    13    ar
23    12    31    1
24    13    14    ar
25    14    15    1
26    15    16    1
27    15    32    1
28    16    22    ar
29    16    17    ar
30    17    18    ar
31    17    33    1
32    18    19    ar
33    18    34    1
34    19    20    ar
35    19    35    1
36    20    21    1
37    20    22    ar
38    22    36    1
@<TRIPOS>SUBSTRUCTURE
1   ZINC000000600292 1     RESIDUE    1   A     ZIN   1
