@<TRIPOS>MOLECULE
ZINC000028826945
  50   53    0    0    0
SMALL
USER_CHARGES
NO_NAME
@<TRIPOS>ATOM
    1 C1       -0.0887     1.4233     0.0046 C.3    1 <0>      -0.0500
    2 N2       -0.0553    -0.0453    -0.0024 N.4    1 <0>      -0.3900
    3 H3       -0.9991    -0.4020     0.0049 H      1 <0>       0.4200
    4 C4        0.6557    -0.5226     1.1904 C.3    1 <0>      -0.0200
    5 C5        0.5919    -2.0526     1.2436 C.3    1 <0>       0.1000
    6 N6        1.1101    -2.5854    -0.0259 N.pl3  1 <0>      -0.6200
    7 C7        2.0857    -3.5753    -0.0404 C.ar   1 <0>       0.4200
    8 C8        2.5745    -4.0770     1.1602 C.ar   1 <0>      -0.2700
    9 C9        3.5464    -5.0637     1.1357 C.ar   1 <0>       0.0000
   10 C10       3.9991    -5.5178    -0.0926 C.ar   1 <0>      -0.2500
   11 C11       3.4684    -4.9738    -1.2554 C.ar   1 <0>       0.4300
   12 N12       3.9180    -5.4246    -2.4952 N.am   1 <0>      -0.6700
   13 C13       3.4883    -4.8288    -3.6251 C.2    1 <0>       0.7000
   14 O14       2.7859    -3.8384    -3.5609 O.2    1 <0>      -0.4800
   15 N15       3.8371    -5.3308    -4.8263 N.am   1 <0>      -0.6600
   16 C16       3.3035    -4.7762    -6.0010 C.2    1 <0>       0.3300
   17 C17       3.5417    -5.3040    -7.2137 C.2    1 <0>      -0.3000
   18 S18       2.7006    -4.3259    -8.4146 S.3    1 <0>       0.1500
   19 C19       2.0969    -3.2780    -7.1338 C.2    1 <0>       0.1100
   20 C20       1.2271    -2.0991    -7.3303 C.ar   1 <0>       0.0200
   21 C21       0.8055    -1.3265    -6.2416 C.ar   1 <0>      -0.1300
   22 C22      -0.0057    -0.2349    -6.4708 C.ar   1 <0>       0.1000
   23 N23      -0.3835     0.0837    -7.6942 N.ar   1 <0>      -0.4700
   24 C24      -0.0091    -0.6170    -8.7477 C.ar   1 <0>       0.1100
   25 C25       0.8067    -1.7206    -8.6110 C.ar   1 <0>      -0.1500
   26 N26       2.5342    -3.7106    -5.9850 N.2    1 <0>      -0.4300
   27 N27       2.5363    -4.0348    -1.1983 N.ar   1 <0>      -0.5300
   28 C28       0.5661    -2.0411    -1.2796 C.3    1 <0>       0.1000
   29 C29       0.6330    -0.5116    -1.2127 C.3    1 <0>      -0.0200
   30 H30       0.9304     1.8100    -0.0032 H      1 <0>       0.1200
   31 H31      -0.6191     1.7789    -0.8788 H      1 <0>       0.1300
   32 H32      -0.6023     1.7708     0.9011 H      1 <0>       0.1200
   33 H33       1.6969    -0.2036     1.1448 H      1 <0>       0.1300
   34 H34       0.1871    -0.1080     2.0830 H      1 <0>       0.1400
   35 H35       1.2028    -2.4161     2.0700 H      1 <0>       0.1300
   36 H36      -0.4414    -2.3716     1.3802 H      1 <0>       0.0900
   37 H37       2.2010    -3.7016     2.1014 H      1 <0>       0.1300
   38 H38       3.9430    -5.4701     2.0543 H      1 <0>       0.1400
   39 H39       4.7564    -6.2860    -0.1454 H      1 <0>       0.1400
   40 H40       4.5401    -6.1672    -2.5448 H      1 <0>       0.4200
   41 H41       4.4568    -6.0752    -4.8794 H      1 <0>       0.4200
   42 H42       4.1447    -6.1765    -7.4173 H      1 <0>       0.1900
   43 H43       1.1105    -1.5817    -5.2375 H      1 <0>       0.1500
   44 H44      -0.3366     0.3671    -5.6374 H      1 <0>       0.1600
   45 H45      -0.3427    -0.3198    -9.7310 H      1 <0>       0.1700
   46 H46       1.1095    -2.2893    -9.4778 H      1 <0>       0.1400
   47 H47       1.1599    -2.3970    -2.1216 H      1 <0>       0.1500
   48 H48      -0.4698    -2.3590    -1.3979 H      1 <0>       0.0800
   49 H49       0.1465    -0.0878    -2.0913 H      1 <0>       0.1400
   50 H50       1.6754    -0.1942    -1.1857 H      1 <0>       0.1300
@<TRIPOS>BOND
   1    1    2 1
   2    1   30 1
   3    1   31 1
   4    1   32 1
   5    2    3 1
   6    2   29 1
   7    2    4 1
   8    4    5 1
   9    4   33 1
  10    4   34 1
  11    5    6 1
  12    5   35 1
  13    5   36 1
  14    6    7 1
  15    6   28 1
  16    7   27 ar
  17    7    8 ar
  18    8    9 ar
  19    8   37 1
  20    9   10 ar
  21    9   38 1
  22   10   11 ar
  23   10   39 1
  24   11   12 1
  25   11   27 ar
  26   12   13 am
  27   12   40 1
  28   13   14 2
  29   13   15 am
  30   15   16 1
  31   15   41 1
  32   16   26 1
  33   16   17 2
  34   17   18 1
  35   17   42 1
  36   18   19 1
  37   19   20 1
  38   19   26 2
  39   20   25 ar
  40   20   21 ar
  41   21   22 ar
  42   21   43 1
  43   22   23 ar
  44   22   44 1
  45   23   24 ar
  46   24   25 ar
  47   24   45 1
  48   25   46 1
  49   28   29 1
  50   28   47 1
  51   28   48 1
  52   29   49 1
  53   29   50 1
