@<TRIPOS>MOLECULE
ZINC000003894725
29    30    1     0     0
SMALL
USER_CHARGES
@<TRIPOS>ATOM
1      O1      0.0021   -0.0041    0.0020 O.2      1 ZINC000003894725   -0.4600
2      C2     -0.0144    1.2134    0.0087 C.2      1 ZINC000003894725    0.4200
3      C3      1.2033    1.9387    0.0010 C.2      1 ZINC000003894725   -0.2500
4      C4      2.3839    1.2783   -0.0138 C.2      1 ZINC000003894725    0.0100
5      C5      3.6453    2.0296   -0.0218 C.ar     1 ZINC000003894725   -0.1100
6      C6      3.6317    3.4291   -0.0084 C.ar     1 ZINC000003894725   -0.0800
7      C7      4.8195    4.1269   -0.0161 C.ar     1 ZINC000003894725   -0.1300
8      C8      6.0284    3.4503   -0.0371 C.ar     1 ZINC000003894725   -0.0900
9      C9      6.0576    2.0689   -0.0510 C.ar     1 ZINC000003894725   -0.1500
10     C10     4.8741    1.3484   -0.0372 C.ar     1 ZINC000003894725    0.1400
11     O11     4.9015   -0.0080   -0.0504 O.3      1 ZINC000003894725   -0.4900
12     C12    -1.3055    1.9355    0.0188 C.ar     1 ZINC000003894725   -0.1600
13     C13    -1.3280    3.3313    0.0207 C.ar     1 ZINC000003894725   -0.0800
14     C14    -2.5352    3.9986    0.0301 C.ar     1 ZINC000003894725   -0.1300
15     C15    -3.7223    3.2874    0.0377 C.ar     1 ZINC000003894725   -0.0900
16     C16    -3.7070    1.9037    0.0358 C.ar     1 ZINC000003894725   -0.1300
17     C17    -2.5066    1.2242    0.0206 C.ar     1 ZINC000003894725   -0.0600
18     H18     1.1886    3.0186    0.0069 H        1 ZINC000003894725    0.1300
19     H19     2.3986    0.1984   -0.0198 H        1 ZINC000003894725    0.1400
20     H20     2.6919    3.9609    0.0076 H        1 ZINC000003894725    0.1300
21     H21     4.8083    5.2068   -0.0061 H        1 ZINC000003894725    0.1300
22     H22     6.9542    4.0063   -0.0429 H        1 ZINC000003894725    0.1300
23     H23     7.0045    1.5499   -0.0676 H        1 ZINC000003894725    0.1300
24     H24     4.9248   -0.4095    0.8290 H        1 ZINC000003894725    0.4000
25     H25    -0.4022    3.8875    0.0152 H        1 ZINC000003894725    0.1300
26     H26    -2.5541    5.0784    0.0320 H        1 ZINC000003894725    0.1300
27     H27    -4.6648    3.8147    0.0454 H        1 ZINC000003894725    0.1300
28     H28    -4.6370    1.3547    0.0417 H        1 ZINC000003894725    0.1300
29     H29    -2.4961    0.1443    0.0188 H        1 ZINC000003894725    0.1300
@<TRIPOS>BOND
1     1     2     2
2     2     3     1
3     2     12    1
4     3     4     2
5     3     18    1
6     4     5     1
7     4     19    1
8     5     10    ar
9     5     6     ar
10    6     7     ar
11    6     20    1
12    7     8     ar
13    7     21    1
14    8     9     ar
15    8     22    1
16    9     10    ar
17    9     23    1
18    10    11    1
19    11    24    1
20    12    17    ar
21    12    13    ar
22    13    14    ar
23    13    25    1
24    14    15    ar
25    14    26    1
26    15    16    ar
27    15    27    1
28    16    17    ar
29    16    28    1
30    17    29    1
@<TRIPOS>SUBSTRUCTURE
1   ZINC000003894725 1     RESIDUE    1   A     ZIN   1
