@<TRIPOS>MOLECULE
ZINC000005180959
34    36    1     0     0
SMALL
USER_CHARGES
@<TRIPOS>ATOM
1      C1     -0.0178    1.4648    0.0101 C.3      1 ZINC000005180959   -0.0500
2      N2      0.0021   -0.0041    0.0020 N.4      1 ZINC000005180959   -0.3900
3      H3     -0.9446   -0.3531    0.0092 H        1 ZINC000005180959    0.4200
4      C4      0.7119   -0.4904    1.1925 C.3      1 ZINC000005180959    0.0000
5      C5      0.7166   -2.0206    1.1942 C.3      1 ZINC000005180959    0.0300
6      N6      1.3783   -2.5070   -0.0247 N.3      1 ZINC000005180959   -0.5000
7      C7      1.4493   -3.8952   -0.0329 C.ar     1 ZINC000005180959    0.2200
8      C8      0.3118   -4.6524    0.0063 C.ar     1 ZINC000005180959   -0.1300
9      C9      0.3582   -6.0470   -0.0004 C.ar     1 ZINC000005180959    0.0400
10     C10     1.5232   -6.7411   -0.0463 C.ar     1 ZINC000005180959    0.0000
11     N11     1.5016   -8.2229   -0.0514 N.pl3    1 ZINC000005180959    0.0200
12     O12     0.4388   -8.8167   -0.0143 O.2      1 ZINC000005180959   -0.1300
13     O13     2.5468   -8.8470   -0.0926 O.2      1 ZINC000005180959   -0.1200
14     C14     2.7503   -6.0571   -0.0896 C.ar     1 ZINC000005180959    0.0900
15     N15     4.0323   -6.3335   -0.1383 N.2      1 ZINC000005180959   -0.2400
16     O16     4.6621   -5.2947   -0.1581 O.3      1 ZINC000005180959    0.3600
17     N17     4.0100   -4.2698   -0.1301 N.2      1 ZINC000005180959   -0.0200
18     O18     4.5412   -2.9573   -0.1458 O.3      1 ZINC000005180959   -0.3900
19     C19     2.7372   -4.5735   -0.0894 C.ar     1 ZINC000005180959    0.0200
20     C20     0.6932   -2.0076   -1.2253 C.3      1 ZINC000005180959    0.0300
21     C21     0.6890   -0.4775   -1.2069 C.3      1 ZINC000005180959    0.0000
22     H22     1.0047    1.8421    0.0024 H        1 ZINC000005180959    0.1300
23     H23    -0.5450    1.8259   -0.8730 H        1 ZINC000005180959    0.1300
24     H24    -0.5280    1.8163    0.9069 H        1 ZINC000005180959    0.1300
25     H25     1.7384   -0.1239    1.1783 H        1 ZINC000005180959    0.1500
26     H26     0.2090   -0.1276    2.0888 H        1 ZINC000005180959    0.1500
27     H27     1.2562   -2.3817    2.0697 H        1 ZINC000005180959    0.1300
28     H28    -0.3095   -2.3874    1.2221 H        1 ZINC000005180959    0.0800
29     H29    -0.6479   -4.1583    0.0439 H        1 ZINC000005180959    0.1800
30     H30    -0.5710   -6.5963    0.0326 H        1 ZINC000005180959    0.1900
31     H31     1.2157   -2.3592   -2.1150 H        1 ZINC000005180959    0.1300
32     H32    -0.3333   -2.3742   -1.2373 H        1 ZINC000005180959    0.0800
33     H33     0.1689   -0.1049   -2.0894 H        1 ZINC000005180959    0.1500
34     H34     1.7157   -0.1113   -1.2087 H        1 ZINC000005180959    0.1500
@<TRIPOS>BOND
1     1     2     1
2     1     22    1
3     1     23    1
4     1     24    1
5     2     3     1
6     2     21    1
7     2     4     1
8     4     5     1
9     4     25    1
10    4     26    1
11    5     6     1
12    5     27    1
13    5     28    1
14    6     7     1
15    6     20    1
16    7     19    ar
17    7     8     ar
18    8     9     ar
19    8     29    1
20    9     10    ar
21    9     30    1
22    10    11    1
23    10    14    ar
24    11    12    2
25    11    13    2
26    14    19    ar
27    14    15    2
28    15    16    1
29    16    17    1
30    17    18    1
31    17    19    2
32    20    21    1
33    20    31    1
34    20    32    1
35    21    33    1
36    21    34    1
@<TRIPOS>SUBSTRUCTURE
1   ZINC000005180959 1     RESIDUE    1   A     ZIN   1
