@<TRIPOS>MOLECULE
ZINC000049722662
70    73    1     0     0
SMALL
USER_CHARGES
@<TRIPOS>ATOM
1      C1      4.0235   -1.0129    2.4307 C.3      1 ZINC000049722662   -0.1600
2      C2      2.6104   -1.5972    2.4845 C.3      1 ZINC000049722662   -0.0700
3      C3      2.6893   -3.0961    2.7812 C.3      1 ZINC000049722662   -0.1700
4      C4      1.8120   -0.9003    3.5880 C.3      1 ZINC000049722662   -0.1500
5      C5      1.9170   -1.3796    1.1382 C.3      1 ZINC000049722662   -0.1400
6      C6      2.7851   -1.9566    0.0182 C.3      1 ZINC000049722662    0.0600
7      H7      3.8104   -1.5980    0.1091 H        1 ZINC000049722662    0.1700
8      N8      2.7500   -3.4437    0.0470 N.4      1 ZINC000049722662   -0.5100
9      H9      3.4223   -3.7993    0.7100 H        1 ZINC000049722662    0.4400
10     H10     1.8230   -3.7700    0.2757 H        1 ZINC000049722662    0.4400
11     C11     3.1193   -3.8485   -1.3347 C.3      1 ZINC000049722662    0.0100
12     H12     4.1997   -3.7971   -1.4699 H        1 ZINC000049722662    0.1700
13     C13     2.6201   -5.2403   -1.6257 C.2      1 ZINC000049722662    0.5100
14     O14     1.7262   -5.7159   -0.9580 O.2      1 ZINC000049722662   -0.5100
15     N15     3.1669   -5.9566   -2.6279 N.am     1 ZINC000049722662   -0.7000
16     C16     2.6368   -7.2827   -2.9545 C.3      1 ZINC000049722662    0.1200
17     C17     3.4293   -7.8757   -4.1211 C.3      1 ZINC000049722662   -0.1600
18     C18     2.8757   -9.2606   -4.4621 C.3      1 ZINC000049722662    0.1100
19     H19     1.8058   -9.1864   -4.6568 H        1 ZINC000049722662    0.1100
20     O20     3.0997  -10.1468   -3.3637 O.3      1 ZINC000049722662   -0.5500
21     C21     3.5841   -9.8009   -5.7060 C.3      1 ZINC000049722662    0.0400
22     O22     2.9879  -11.0406   -6.0929 O.3      1 ZINC000049722662   -0.5600
23     C23     2.4125   -2.8181   -2.2455 C.3      1 ZINC000049722662   -0.0200
24     H24     1.4526   -3.2071   -2.5854 H        1 ZINC000049722662    0.1300
25     C25     3.2854   -2.4736   -3.4246 C.ar     1 ZINC000049722662   -0.1300
26     C26     4.6519   -2.3494   -3.2599 C.ar     1 ZINC000049722662   -0.0900
27     C27     5.4537   -2.0338   -4.3412 C.ar     1 ZINC000049722662   -0.1100
28     C28     4.8900   -1.8415   -5.5884 C.ar     1 ZINC000049722662   -0.0600
29     C29     3.5226   -1.9648   -5.7560 C.ar     1 ZINC000049722662   -0.0700
30     Cl30    2.8141   -1.7229   -7.3223 Cl       1 ZINC000049722662   -0.0200
31     C31     2.7193   -2.2871   -4.6741 C.ar     1 ZINC000049722662    0.1400
32     F32     1.3835   -2.4078   -4.8360 F        1 ZINC000049722662   -0.1200
33     C33     2.2068   -1.5852   -1.3538 C.3      1 ZINC000049722662   -0.0600
34     C34     0.7519   -1.2166   -1.2519 C.2      1 ZINC000049722662    0.5400
35     O35    -0.1450   -1.9172   -0.8327 O.2      1 ZINC000049722662   -0.4700
36     N36     0.6385    0.0425   -1.7171 N.am     1 ZINC000049722662   -0.6500
37     C37     1.8677    0.5671   -2.1223 C.ar     1 ZINC000049722662    0.1700
38     C38     2.1947    1.8110   -2.6554 C.ar     1 ZINC000049722662   -0.1300
39     C39     3.5038    2.1037   -2.9836 C.ar     1 ZINC000049722662    0.0200
40     Cl40    3.9014    3.6577   -3.6474 Cl       1 ZINC000049722662   -0.0300
41     C41     4.5001    1.1640   -2.7853 C.ar     1 ZINC000049722662   -0.1200
42     C42     4.1825   -0.0747   -2.2564 C.ar     1 ZINC000049722662   -0.0500
43     C43     2.8785   -0.3706   -1.9287 C.ar     1 ZINC000049722662   -0.1500
44     H44     4.5923   -1.5095    1.6446 H        1 ZINC000049722662    0.0500
45     H45     3.9673    0.0549    2.2194 H        1 ZINC000049722662    0.0700
46     H46     4.5175   -1.1680    3.3899 H        1 ZINC000049722662    0.0800
47     H47     2.7424   -3.2509    3.8588 H        1 ZINC000049722662    0.0900
48     H48     1.8026   -3.5919    2.3861 H        1 ZINC000049722662    0.0600
49     H49     3.5792   -3.5134    2.3099 H        1 ZINC000049722662    0.0500
50     H50     1.7558    0.1676    3.3767 H        1 ZINC000049722662    0.0600
51     H51     0.8054   -1.3165    3.6263 H        1 ZINC000049722662    0.0600
52     H52     2.3061   -1.0553    4.5472 H        1 ZINC000049722662    0.0700
53     H53     0.9492   -1.8811    1.1427 H        1 ZINC000049722662    0.1100
54     H54     1.7723   -0.3121    0.9724 H        1 ZINC000049722662    0.1200
55     H55     3.9114   -5.5940   -3.1330 H        1 ZINC000049722662    0.4100
56     H56     2.7272   -7.9342   -2.0853 H        1 ZINC000049722662    0.0900
57     H57     1.5872   -7.1953   -3.2354 H        1 ZINC000049722662    0.0800
58     H58     3.3389   -7.2241   -4.9902 H        1 ZINC000049722662    0.0900
59     H59     4.4789   -7.9630   -3.8402 H        1 ZINC000049722662    0.0800
60     H60     4.0321  -10.2609   -3.1342 H        1 ZINC000049722662    0.3800
61     H61     3.4882   -9.0821   -6.5198 H        1 ZINC000049722662    0.0600
62     H62     4.6393   -9.9590   -5.4833 H        1 ZINC000049722662    0.0500
63     H63     3.3879  -11.4418   -6.8766 H        1 ZINC000049722662    0.3900
64     H64     5.0938   -2.4986   -2.2858 H        1 ZINC000049722662    0.1400
65     H65     6.5215   -1.9371   -4.2110 H        1 ZINC000049722662    0.1500
66     H66     5.5173   -1.5947   -6.4322 H        1 ZINC000049722662    0.1500
67     H67    -0.1997    0.5282   -1.7653 H        1 ZINC000049722662    0.4300
68     H68     1.4222    2.5491   -2.8132 H        1 ZINC000049722662    0.1500
69     H69     5.5227    1.3967   -3.0430 H        1 ZINC000049722662    0.1500
70     H70     4.9582   -0.8099   -2.1009 H        1 ZINC000049722662    0.1500
@<TRIPOS>BOND
1     1     2     1
2     1     44    1
3     1     45    1
4     1     46    1
5     2     3     1
6     2     4     1
7     2     5     1
8     3     47    1
9     3     48    1
10    3     49    1
11    4     50    1
12    4     51    1
13    4     52    1
14    5     6     1
15    5     53    1
16    5     54    1
17    6     7     1
18    6     33    1
19    6     8     1
20    8     9     1
21    8     10    1
22    8     11    1
23    11    12    1
24    11    13    1
25    11    23    1
26    13    14    2
27    13    15    am
28    15    16    1
29    15    55    1
30    16    17    1
31    16    56    1
32    16    57    1
33    17    18    1
34    17    58    1
35    17    59    1
36    18    19    1
37    18    20    1
38    18    21    1
39    20    60    1
40    21    22    1
41    21    61    1
42    21    62    1
43    22    63    1
44    23    24    1
45    23    25    1
46    23    33    1
47    25    31    ar
48    25    26    ar
49    26    27    ar
50    26    64    1
51    27    28    ar
52    27    65    1
53    28    29    ar
54    28    66    1
55    29    30    1
56    29    31    ar
57    31    32    1
58    33    43    1
59    33    34    1
60    34    35    2
61    34    36    am
62    36    37    1
63    36    67    1
64    37    43    ar
65    37    38    ar
66    38    39    ar
67    38    68    1
68    39    40    1
69    39    41    ar
70    41    42    ar
71    41    69    1
72    42    43    ar
73    42    70    1
@<TRIPOS>SUBSTRUCTURE
1   ZINC000049722662 1     RESIDUE    1   A     ZIN   1
