@<TRIPOS>MOLECULE
ZINC000018847046
  28   30    0    0    0
SMALL
USER_CHARGES
NO_NAME
@<TRIPOS>ATOM
    1 C1       -0.0173     1.4248     0.0099 C.3    1 <0>       0.0300
    2 O2        0.0021    -0.0041     0.0020 O.3    1 <0>      -0.3100
    3 C3       -1.2001    -0.6374     0.0101 C.ar   1 <0>       0.1700
    4 C4       -1.2484    -2.0193     0.0089 C.ar   1 <0>      -0.1900
    5 C5       -2.4762    -2.6728     0.0171 C.ar   1 <0>       0.1900
    6 C6       -3.6591    -1.9162     0.0270 C.ar   1 <0>      -0.1500
    7 C7       -3.5972    -0.5233     0.0291 C.ar   1 <0>      -0.0100
    8 C8       -2.3747     0.1092     0.0253 C.ar   1 <0>      -0.2300
    9 C9       -4.7696    -2.8806     0.0333 C.ar   1 <0>      -0.0500
   10 C10      -4.1894    -4.1610     0.0268 C.ar   1 <0>       0.0800
   11 N11      -2.8149    -4.0140     0.0172 N.pl3  1 <0>      -0.6000
   12 C12      -5.0285    -5.2685     0.0308 C.ar   1 <0>       0.1300
   13 C13      -4.4368    -6.6545     0.0244 C.3    1 <0>      -0.1000
   14 N14      -6.3370    -5.1170     0.0405 N.ar   1 <0>      -0.4600
   15 C15      -6.9135    -3.9279     0.0469 C.ar   1 <0>       0.0700
   16 C16      -6.1600    -2.7734     0.0432 C.ar   1 <0>      -0.1200
   17 H17       1.0053     1.8021     0.0021 H      1 <0>       0.1000
   18 H18      -0.5445     1.7859    -0.8732 H      1 <0>       0.0600
   19 H19      -0.5275     1.7763     0.9067 H      1 <0>       0.0600
   20 H20      -0.3324    -2.5915     0.0012 H      1 <0>       0.1400
   21 H21      -4.5070     0.0585     0.0364 H      1 <0>       0.1300
   22 H22      -2.3268     1.1881     0.0273 H      1 <0>       0.1400
   23 H23      -2.1790    -4.7465     0.0111 H      1 <0>       0.4200
   24 H24      -4.2870    -6.9903     1.0505 H      1 <0>       0.0800
   25 H25      -5.1161    -7.3373    -0.4859 H      1 <0>       0.0800
   26 H26      -3.4792    -6.6383    -0.4960 H      1 <0>       0.0700
   27 H27      -7.9913    -3.8595     0.0548 H      1 <0>       0.1600
   28 H28      -6.6374    -1.8046     0.0484 H      1 <0>       0.1400
@<TRIPOS>BOND
   1    1    2 1
   2    1   17 1
   3    1   18 1
   4    1   19 1
   5    2    3 1
   6    3    8 ar
   7    3    4 ar
   8    4    5 ar
   9    4   20 1
  10    5   11 1
  11    5    6 ar
  12    6    7 ar
  13    6    9 1
  14    7    8 ar
  15    7   21 1
  16    8   22 1
  17    9   16 ar
  18    9   10 ar
  19   10   11 1
  20   10   12 ar
  21   11   23 1
  22   12   13 1
  23   12   14 ar
  24   13   24 1
  25   13   25 1
  26   13   26 1
  27   14   15 ar
  28   15   16 ar
  29   15   27 1
  30   16   28 1
