@<TRIPOS>MOLECULE
ZINC000005934541
27    29    1     0     0
SMALL
USER_CHARGES
@<TRIPOS>ATOM
1      O1      0.0021   -0.0041    0.0020 O.2      1 ZINC000005934541   -0.5200
2      C2     -0.0145    1.2158    0.0087 C.2      1 ZINC000005934541    0.4200
3      C3     -1.2334    1.9350    0.0302 C.2      1 ZINC000005934541   -0.3200
4      C4     -1.2099    3.2943    0.0370 C.2      1 ZINC000005934541    0.1900
5      C5     -2.4922    4.0262    0.0594 C.ar     1 ZINC000005934541   -0.0600
6      C6     -3.6999    3.3250    0.0791 C.ar     1 ZINC000005934541   -0.0900
7      C7     -4.8940    4.0151    0.1005 C.ar     1 ZINC000005934541   -0.1200
8      C8     -4.8972    5.3988    0.1025 C.ar     1 ZINC000005934541   -0.1100
9      C9     -3.7044    6.0999    0.0826 C.ar     1 ZINC000005934541   -0.1200
10     C10    -2.5029    5.4227    0.0669 C.ar     1 ZINC000005934541   -0.0800
11     O11    -0.0663    3.9967    0.0246 O.3      1 ZINC000005934541   -0.2300
12     C12     1.1448    3.4023    0.0039 C.ar     1 ZINC000005934541    0.1900
13     C13     2.3083    4.1574   -0.0080 C.ar     1 ZINC000005934541   -0.2900
14     C14     3.5395    3.5227   -0.0288 C.ar     1 ZINC000005934541    0.3100
15     O15     4.6778    4.2622   -0.0405 O.3      1 ZINC000005934541   -0.7000
16     C16     3.6191    2.1322   -0.0374 C.ar     1 ZINC000005934541   -0.2600
17     C17     2.4818    1.3752   -0.0262 C.ar     1 ZINC000005934541    0.0000
18     C18     1.2350    1.9996    0.0010 C.ar     1 ZINC000005934541   -0.3500
19     H19    -2.1757    1.4074    0.0407 H        1 ZINC000005934541    0.1500
20     H20    -3.6988    2.2450    0.0772 H        1 ZINC000005934541    0.1300
21     H21    -5.8287    3.4741    0.1153 H        1 ZINC000005934541    0.1300
22     H22    -5.8351    5.9341    0.1193 H        1 ZINC000005934541    0.1200
23     H23    -3.7142    7.1799    0.0836 H        1 ZINC000005934541    0.1300
24     H24    -1.5726    5.9712    0.0519 H        1 ZINC000005934541    0.1400
25     H25     2.2545    5.2360   -0.0015 H        1 ZINC000005934541    0.1200
26     H26     4.5853    1.6498   -0.0533 H        1 ZINC000005934541    0.1100
27     H27     2.5481    0.2972   -0.0332 H        1 ZINC000005934541    0.1100
@<TRIPOS>BOND
1     1     2     2
2     2     18    1
3     2     3     1
4     3     4     2
5     3     19    1
6     4     5     1
7     4     11    1
8     5     10    ar
9     5     6     ar
10    6     7     ar
11    6     20    1
12    7     8     ar
13    7     21    1
14    8     9     ar
15    8     22    1
16    9     10    ar
17    9     23    1
18    10    24    1
19    11    12    1
20    12    18    ar
21    12    13    ar
22    13    14    ar
23    13    25    1
24    14    15    1
25    14    16    ar
26    16    17    ar
27    16    26    1
28    17    18    ar
29    17    27    1
@<TRIPOS>SUBSTRUCTURE
1   ZINC000005934541 1     RESIDUE    1   A     ZIN   1
