@<TRIPOS>MOLECULE
ZINC000040866390
  50   54    0    0    0
SMALL
USER_CHARGES
NO_NAME
@<TRIPOS>ATOM
    1 C1       -0.2339     1.4974     0.0257 C.3    1 <0>      -0.1200
    2 C2       -0.1809    -0.0086     0.0151 C.ar   1 <0>      -0.0800
    3 C3       -0.9389    -0.7311     0.9191 C.ar   1 <0>      -0.1200
    4 C4       -0.8940    -2.1103     0.9143 C.ar   1 <0>      -0.1000
    5 C5       -0.0831    -2.7755    -0.0040 C.ar   1 <0>      -0.0600
    6 C6       -0.0309    -4.2573    -0.0144 C.ar   1 <0>      -0.0200
    7 C7       -0.7988    -4.9881     0.8924 C.ar   1 <0>      -0.1200
    8 C8       -0.7512    -6.3639     0.8837 C.ar   1 <0>      -0.0900
    9 C9        0.0663    -7.0282    -0.0341 C.ar   1 <0>      -0.1300
   10 C10       0.1179    -8.5045    -0.0448 C.2    1 <0>       0.5700
   11 O11       0.0600    -9.1071    -1.0990 O.2    1 <0>      -0.5200
   12 N12       0.2291    -9.1833     1.1142 N.am   1 <0>      -0.6000
   13 C13       0.3674   -10.6475     1.1207 C.3    1 <0>       0.1100
   14 C14       1.7407   -11.0154     1.6953 C.3    1 <0>      -0.0600
   15 C15       1.9909   -10.1921     2.9329 C.2    1 <0>      -0.1500
   16 C16       1.3219    -9.0642     3.2560 C.2    1 <0>       0.0500
   17 C17       0.2216    -8.4774     2.4070 C.3    1 <0>       0.1700
   18 N18       1.7971    -8.5617     4.4380 N.pl3  1 <0>      -0.5800
   19 C19       2.7949    -9.3639     4.9121 C.ar   1 <0>       0.1000
   20 C20       3.5882    -9.2913     6.0548 C.ar   1 <0>      -0.1300
   21 C21       4.5257   -10.2946     6.2319 C.ar   1 <0>      -0.1000
   22 C22       4.6803   -11.3300     5.3252 C.ar   1 <0>      -0.1500
   23 C23       3.9131   -11.4267     4.1901 C.ar   1 <0>      -0.0700
   24 C24       2.9587   -10.4260     3.9858 C.ar   1 <0>      -0.1000
   25 C25       0.8345    -6.2953    -0.9421 C.ar   1 <0>      -0.0600
   26 C26       0.7816    -4.9197    -0.9348 C.ar   1 <0>      -0.1200
   27 C27       0.6782    -2.0422    -0.9129 C.ar   1 <0>      -0.1000
   28 C28       0.6213    -0.6634    -0.9022 C.ar   1 <0>      -0.1200
   29 H29      -1.0281     1.8377    -0.6388 H      1 <0>       0.0700
   30 H30      -0.4331     1.8469     1.0387 H      1 <0>       0.0700
   31 H31       0.7212     1.8970    -0.3153 H      1 <0>       0.0700
   32 H32      -1.5667    -0.2147     1.6301 H      1 <0>       0.1300
   33 H33      -1.4856    -2.6734     1.6210 H      1 <0>       0.1300
   34 H34      -1.4307    -4.4744     1.6018 H      1 <0>       0.1300
   35 H35      -1.3452    -6.9295     1.5863 H      1 <0>       0.1300
   36 H36      -0.4161   -11.0853     1.7392 H      1 <0>       0.0800
   37 H37       0.2847   -11.0263     0.1020 H      1 <0>       0.1000
   38 H38       1.7567   -12.0745     1.9524 H      1 <0>       0.0900
   39 H39       2.5135   -10.8063     0.9556 H      1 <0>       0.0800
   40 H40       0.4008    -7.4134     2.2523 H      1 <0>       0.1100
   41 H41      -0.7415    -8.6242     2.8959 H      1 <0>       0.0900
   42 H42       1.4737    -7.7570     4.8726 H      1 <0>       0.4200
   43 H43       3.4774    -8.4892     6.7695 H      1 <0>       0.1300
   44 H44       5.1578   -10.2692     7.1072 H      1 <0>       0.1200
   45 H45       5.4282   -12.0853     5.5167 H      1 <0>       0.1200
   46 H46       4.0413   -12.2376     3.4884 H      1 <0>       0.1300
   47 H47       1.4670    -6.8078    -1.6518 H      1 <0>       0.1300
   48 H48       1.3754    -4.3529    -1.6366 H      1 <0>       0.1300
   49 H49       1.3084    -2.5522    -1.6263 H      1 <0>       0.1300
   50 H50       1.2103    -0.0942    -1.6061 H      1 <0>       0.1300
@<TRIPOS>BOND
   1    1    2 1
   2    1   29 1
   3    1   30 1
   4    1   31 1
   5    2   28 ar
   6    2    3 ar
   7    3    4 ar
   8    3   32 1
   9    4    5 ar
  10    4   33 1
  11    5    6 1
  12    5   27 ar
  13    6   26 ar
  14    6    7 ar
  15    7    8 ar
  16    7   34 1
  17    8    9 ar
  18    8   35 1
  19    9   10 1
  20    9   25 ar
  21   10   11 2
  22   10   12 am
  23   12   17 1
  24   12   13 1
  25   13   14 1
  26   13   36 1
  27   13   37 1
  28   14   15 1
  29   14   38 1
  30   14   39 1
  31   15   24 1
  32   15   16 2
  33   16   17 1
  34   16   18 1
  35   17   40 1
  36   17   41 1
  37   18   19 1
  38   18   42 1
  39   19   24 ar
  40   19   20 ar
  41   20   21 ar
  42   20   43 1
  43   21   22 ar
  44   21   44 1
  45   22   23 ar
  46   22   45 1
  47   23   24 ar
  48   23   46 1
  49   25   26 ar
  50   25   47 1
  51   26   48 1
  52   27   28 ar
  53   27   49 1
  54   28   50 1
