@<TRIPOS>MOLECULE
ZINC000001414783
53    57    1     0     0
SMALL
USER_CHARGES
@<TRIPOS>ATOM
1      O1     -0.1075    0.4704   -0.8943 O.2      1 ZINC000001414783   -0.4200
2      C2      0.2432    1.2261   -0.0076 C.2      1 ZINC000001414783    0.4700
3      C3      1.4092    2.0931   -0.2018 C.2      1 ZINC000001414783   -0.2400
4      C4      2.6953    1.6963   -0.3452 C.2      1 ZINC000001414783    0.1100
5      O5      3.1260    0.4139   -0.3334 O.3      1 ZINC000001414783   -0.4300
6      C6      3.5544    2.8869   -0.5173 C.2      1 ZINC000001414783    0.5200
7      O7      4.7594    2.8610   -0.6703 O.2      1 ZINC000001414783   -0.5000
8      N8      2.8046    4.0033   -0.4801 N.am     1 ZINC000001414783   -0.5900
9      C9      3.2961    5.3768   -0.6152 C.3      1 ZINC000001414783    0.1400
10     C10     3.2850    5.7795   -2.0912 C.3      1 ZINC000001414783   -0.0600
11     C11     3.7906    7.1923   -2.2303 C.2      1 ZINC000001414783   -0.1700
12     C12     3.0434    8.3063   -2.2828 C.2      1 ZINC000001414783    0.0600
13     N13     3.8504    9.4038   -2.4114 N.pl3    1 ZINC000001414783   -0.5900
14     C14     5.1702    9.0130   -2.4457 C.ar     1 ZINC000001414783    0.1000
15     C15     6.3712    9.7049   -2.5616 C.ar     1 ZINC000001414783   -0.1300
16     C16     7.5624    9.0123   -2.5656 C.ar     1 ZINC000001414783   -0.1000
17     C17     7.5772    7.6289   -2.4549 C.ar     1 ZINC000001414783   -0.1400
18     C18     6.4090    6.9291   -2.3399 C.ar     1 ZINC000001414783   -0.0700
19     C19     5.1911    7.6111   -2.3273 C.ar     1 ZINC000001414783   -0.1000
20     C20     1.4063    3.6016   -0.2872 C.3      1 ZINC000001414783    0.2300
21     H21     1.0201    4.0224    0.6411 H        1 ZINC000001414783    0.1200
22     C22     0.5692    4.0630   -1.4523 C.ar     1 ZINC000001414783   -0.1600
23     C23    -0.6206    4.7410   -1.2369 C.ar     1 ZINC000001414783   -0.0600
24     C24    -1.3578    5.1469   -2.3391 C.ar     1 ZINC000001414783   -0.1700
25     C25    -0.8853    4.8642   -3.6065 C.ar     1 ZINC000001414783    0.1100
26     N26     0.2515    4.2169   -3.7738 N.ar     1 ZINC000001414783   -0.4800
27     C27     0.9809    3.8205   -2.7494 C.ar     1 ZINC000001414783    0.1400
28     C28    -0.5101    1.2744    1.2632 C.ar     1 ZINC000001414783   -0.1600
29     C29    -0.1468    2.1835    2.2597 C.ar     1 ZINC000001414783   -0.0600
30     C30    -0.8537    2.2240    3.4426 C.ar     1 ZINC000001414783   -0.1200
31     C31    -1.9223    1.3655    3.6442 C.ar     1 ZINC000001414783    0.0000
32     Cl32   -2.8074    1.4226    5.1365 Cl       1 ZINC000001414783   -0.0600
33     C33    -2.2877    0.4619    2.6595 C.ar     1 ZINC000001414783   -0.1200
34     C34    -1.5918    0.4150    1.4703 C.ar     1 ZINC000001414783   -0.0500
35     H35     4.0812    0.3187   -0.4502 H        1 ZINC000001414783    0.4200
36     H36     2.6521    6.0505   -0.0499 H        1 ZINC000001414783    0.0900
37     H37     4.3138    5.4381   -0.2295 H        1 ZINC000001414783    0.0900
38     H38     3.9290    5.1059   -2.6565 H        1 ZINC000001414783    0.0800
39     H39     2.2674    5.7182   -2.4769 H        1 ZINC000001414783    0.0700
40     H40     1.9650    8.3323   -2.2315 H        1 ZINC000001414783    0.1700
41     H41     3.5390   10.3206   -2.4698 H        1 ZINC000001414783    0.4200
42     H42     6.3701   10.7814   -2.6487 H        1 ZINC000001414783    0.1200
43     H43     8.4938    9.5513   -2.6561 H        1 ZINC000001414783    0.1300
44     H44     8.5195    7.1012   -2.4600 H        1 ZINC000001414783    0.1200
45     H45     6.4283    5.8527   -2.2542 H        1 ZINC000001414783    0.1200
46     H46    -0.9654    4.9478   -0.2346 H        1 ZINC000001414783    0.1400
47     H47    -2.2896    5.6771   -2.2085 H        1 ZINC000001414783    0.1400
48     H48    -1.4537    5.1767   -4.4700 H        1 ZINC000001414783    0.1600
49     H49     1.9066    3.2927   -2.9257 H        1 ZINC000001414783    0.1500
50     H50     0.6862    2.8530    2.1038 H        1 ZINC000001414783    0.1400
51     H51    -0.5736    2.9262    4.2139 H        1 ZINC000001414783    0.1400
52     H52    -3.1216   -0.2048    2.8225 H        1 ZINC000001414783    0.1400
53     H53    -1.8775   -0.2898    0.7035 H        1 ZINC000001414783    0.1500
@<TRIPOS>BOND
1     1     2     2
2     2     3     1
3     2     28    1
4     3     20    1
5     3     4     2
6     4     5     1
7     4     6     1
8     5     35    1
9     6     7     2
10    6     8     am
11    8     9     1
12    8     20    1
13    9     10    1
14    9     36    1
15    9     37    1
16    10    11    1
17    10    38    1
18    10    39    1
19    11    19    1
20    11    12    2
21    12    13    1
22    12    40    1
23    13    14    1
24    13    41    1
25    14    19    ar
26    14    15    ar
27    15    16    ar
28    15    42    1
29    16    17    ar
30    16    43    1
31    17    18    ar
32    17    44    1
33    18    19    ar
34    18    45    1
35    20    21    1
36    20    22    1
37    22    27    ar
38    22    23    ar
39    23    24    ar
40    23    46    1
41    24    25    ar
42    24    47    1
43    25    26    ar
44    25    48    1
45    26    27    ar
46    27    49    1
47    28    34    ar
48    28    29    ar
49    29    30    ar
50    29    50    1
51    30    31    ar
52    30    51    1
53    31    32    1
54    31    33    ar
55    33    34    ar
56    33    52    1
57    34    53    1
@<TRIPOS>SUBSTRUCTURE
1   ZINC000001414783 1     RESIDUE    1   A     ZIN   1
