@<TRIPOS>MOLECULE
ZINC000019796158
  41   44    0    0    0
SMALL
USER_CHARGES
NO_NAME
@<TRIPOS>ATOM
    1 C1        1.2079    -1.0343    -2.7018 C.3    1 <0>       0.0200
    2 N2        0.6244    -1.2730    -1.3749 N.3    1 <0>      -0.5400
    3 C3        1.4948    -2.1353    -0.5645 C.3    1 <0>       0.0400
    4 C4        0.9452    -2.2121     0.8639 C.3    1 <0>       0.1100
    5 N5       -0.4627    -2.6330     0.8007 N.pl3  1 <0>      -0.5900
    6 C6       -0.9207    -3.6841     1.5623 C.2    1 <0>       0.5000
    7 N7       -2.1269    -4.0845     1.3527 N.2    1 <0>      -0.5900
    8 C8       -2.7822    -5.0854     2.0051 C.ar   1 <0>       0.1400
    9 C9       -4.1302    -4.9097     2.3318 C.ar   1 <0>      -0.1100
   10 C10      -4.8278    -5.9187     2.9653 C.ar   1 <0>      -0.1000
   11 C11      -4.1982    -7.1086     3.2775 C.ar   1 <0>      -0.1200
   12 C12      -2.8606    -7.2892     2.9694 C.ar   1 <0>      -0.1000
   13 C13      -2.1450    -6.2801     2.3475 C.ar   1 <0>       0.0300
   14 O14      -0.8177    -6.4582     2.1218 O.3    1 <0>      -0.2600
   15 C15       0.0506    -5.6393     2.7647 C.ar   1 <0>       0.1400
   16 C16       0.9797    -6.1706     3.6433 C.ar   1 <0>      -0.1200
   17 C17       1.8484    -5.3363     4.3235 C.ar   1 <0>      -0.0700
   18 C18       1.7936    -3.9665     4.1316 C.ar   1 <0>      -0.0500
   19 Cl19      2.8778    -2.9272     5.0022 Cl     1 <0>      -0.0500
   20 C20       0.8796    -3.4238     3.2496 C.ar   1 <0>      -0.0600
   21 C21       0.0097    -4.2618     2.5448 C.ar   1 <0>      -0.1400
   22 C22      -1.3683    -1.9006    -0.0974 C.3    1 <0>       0.1300
   23 C23      -0.7276    -1.8360    -1.4879 C.3    1 <0>       0.0400
   24 H24       0.5820    -0.3325    -3.2531 H      1 <0>       0.0700
   25 H25       2.2087    -0.6174    -2.5890 H      1 <0>       0.0700
   26 H26       1.2659    -1.9758    -3.2479 H      1 <0>       0.0300
   27 H27       1.5219    -3.1350    -0.9981 H      1 <0>       0.0400
   28 H28       2.5022    -1.7196    -0.5448 H      1 <0>       0.0900
   29 H29       1.5192    -2.9391     1.4385 H      1 <0>       0.0900
   30 H30       1.0135    -1.2319     1.3357 H      1 <0>       0.0800
   31 H31      -4.6269    -3.9822     2.0884 H      1 <0>       0.1300
   32 H32      -5.8683    -5.7776     3.2179 H      1 <0>       0.1300
   33 H33      -4.7507    -7.8993     3.7633 H      1 <0>       0.1300
   34 H34      -2.3731    -8.2210     3.2154 H      1 <0>       0.1300
   35 H35       1.0259    -7.2385     3.7980 H      1 <0>       0.1500
   36 H36       2.5720    -5.7552     5.0071 H      1 <0>       0.1500
   37 H37       0.8394    -2.3545     3.1033 H      1 <0>       0.1500
   38 H38      -2.3239    -2.4215    -0.1583 H      1 <0>       0.1100
   39 H39      -1.5224    -0.8904     0.2820 H      1 <0>       0.0700
   40 H40      -1.3320    -1.2032    -2.1379 H      1 <0>       0.0900
   41 H41      -0.6696    -2.8399    -1.9086 H      1 <0>       0.0400
@<TRIPOS>BOND
   1    1    2 1
   2    1   24 1
   3    1   25 1
   4    1   26 1
   5    2   23 1
   6    2    3 1
   7    3    4 1
   8    3   27 1
   9    3   28 1
  10    4    5 1
  11    4   29 1
  12    4   30 1
  13    5    6 1
  14    5   22 1
  15    6   21 1
  16    6    7 2
  17    7    8 1
  18    8   13 ar
  19    8    9 ar
  20    9   10 ar
  21    9   31 1
  22   10   11 ar
  23   10   32 1
  24   11   12 ar
  25   11   33 1
  26   12   13 ar
  27   12   34 1
  28   13   14 1
  29   14   15 1
  30   15   21 ar
  31   15   16 ar
  32   16   17 ar
  33   16   35 1
  34   17   18 ar
  35   17   36 1
  36   18   19 1
  37   18   20 ar
  38   20   21 ar
  39   20   37 1
  40   22   23 1
  41   22   38 1
  42   22   39 1
  43   23   40 1
  44   23   41 1
