@<TRIPOS>MOLECULE
ZINC000000039451
45    47    1     0     0
SMALL
USER_CHARGES
@<TRIPOS>ATOM
1      C1      0.1296    1.4952    0.0045 C.3      1 ZINC000000039451   -0.1200
2      C2      0.0767   -0.0108   -0.0032 C.2      1 ZINC000000039451   -0.1300
3      C3      0.2254   -0.7767    1.2861 C.3      1 ZINC000000039451   -0.1200
4      C4     -0.0987   -0.6543   -1.1308 C.2      1 ZINC000000039451   -0.1600
5      C5     -0.1216    0.1019   -2.4341 C.3      1 ZINC000000039451   -0.0400
6      C6      0.8825   -0.5012   -3.3824 C.ar     1 ZINC000000039451   -0.1500
7      C7      2.1904   -0.0340   -3.3949 C.ar     1 ZINC000000039451    0.2000
8      O8      2.5551    0.9634   -2.5505 O.3      1 ZINC000000039451   -0.4900
9      C9      3.1294   -0.5778   -4.2629 C.ar     1 ZINC000000039451   -0.2200
10     C10     2.7675   -1.5974   -5.1249 C.ar     1 ZINC000000039451    0.2200
11     O11     3.6807   -2.1302   -5.9743 O.3      1 ZINC000000039451   -0.4800
12     C12     1.4481   -2.0768   -5.1137 C.ar     1 ZINC000000039451   -0.2900
13     C13     0.4999   -1.5226   -4.2341 C.ar     1 ZINC000000039451    0.2100
14     O14    -0.7793   -1.9658   -4.2260 O.3      1 ZINC000000039451   -0.2900
15     C15    -1.0543   -3.2736   -4.7275 C.3      1 ZINC000000039451    0.1500
16     H16    -0.6108   -4.0176   -4.0658 H        1 ZINC000000039451    0.0900
17     C17    -2.5451   -3.4838   -4.7931 C.ar     1 ZINC000000039451   -0.1000
18     C18    -3.3687   -2.4581   -5.2192 C.ar     1 ZINC000000039451   -0.0700
19     C19    -4.7356   -2.6483   -5.2802 C.ar     1 ZINC000000039451   -0.1500
20     C20    -5.2818   -3.8698   -4.9139 C.ar     1 ZINC000000039451    0.1200
21     O21    -6.6262   -4.0595   -4.9735 O.3      1 ZINC000000039451   -0.5000
22     C22    -4.4534   -4.8975   -4.4872 C.ar     1 ZINC000000039451   -0.1400
23     C23    -3.0866   -4.7038   -4.4325 C.ar     1 ZINC000000039451   -0.0800
24     C24    -0.4538   -3.4156   -6.1337 C.3      1 ZINC000000039451   -0.1900
25     C25     1.0394   -3.1651   -6.0086 C.2      1 ZINC000000039451    0.4000
26     O26     1.8509   -3.8259   -6.6234 O.2      1 ZINC000000039451   -0.4300
27     H27     0.1896    1.8514    1.0330 H        1 ZINC000000039451    0.0600
28     H28     1.0073    1.8307   -0.5479 H        1 ZINC000000039451    0.0700
29     H29    -0.7697    1.8928   -0.4658 H        1 ZINC000000039451    0.0700
30     H30    -0.7565   -0.9262    1.7352 H        1 ZINC000000039451    0.0700
31     H31     0.6833   -1.7448    1.0829 H        1 ZINC000000039451    0.0600
32     H32     0.8570   -0.2130    1.9728 H        1 ZINC000000039451    0.0600
33     H33    -0.2269   -1.7266   -1.1263 H        1 ZINC000000039451    0.1100
34     H34    -1.1177    0.0405   -2.8724 H        1 ZINC000000039451    0.0900
35     H35     0.1318    1.1464   -2.2527 H        1 ZINC000000039451    0.0900
36     H36     2.8803    0.6543   -1.6939 H        1 ZINC000000039451    0.4000
37     H37     4.1426   -0.2039   -4.2648 H        1 ZINC000000039451    0.1500
38     H38     4.1672   -2.8813   -5.6081 H        1 ZINC000000039451    0.4000
39     H39    -2.9429   -1.5074   -5.5042 H        1 ZINC000000039451    0.1300
40     H40    -5.3785   -1.8466   -5.6124 H        1 ZINC000000039451    0.1300
41     H41    -6.9383   -4.3986   -5.8236 H        1 ZINC000000039451    0.3900
42     H42    -4.8762   -5.8492   -4.2012 H        1 ZINC000000039451    0.1300
43     H43    -2.4412   -5.5037   -4.1007 H        1 ZINC000000039451    0.1300
44     H44    -0.6291   -4.4226   -6.5122 H        1 ZINC000000039451    0.1100
45     H45    -0.9021   -2.6827   -6.8045 H        1 ZINC000000039451    0.1200
@<TRIPOS>BOND
1     1     2     1
2     1     27    1
3     1     28    1
4     1     29    1
5     2     3     1
6     2     4     2
7     3     30    1
8     3     31    1
9     3     32    1
10    4     5     1
11    4     33    1
12    5     6     1
13    5     34    1
14    5     35    1
15    6     13    ar
16    6     7     ar
17    7     8     1
18    7     9     ar
19    8     36    1
20    9     10    ar
21    9     37    1
22    10    11    1
23    10    12    ar
24    11    38    1
25    12    25    1
26    12    13    ar
27    13    14    1
28    14    15    1
29    15    16    1
30    15    17    1
31    15    24    1
32    17    23    ar
33    17    18    ar
34    18    19    ar
35    18    39    1
36    19    20    ar
37    19    40    1
38    20    21    1
39    20    22    ar
40    21    41    1
41    22    23    ar
42    22    42    1
43    23    43    1
44    24    25    1
45    24    44    1
46    24    45    1
47    25    26    2
@<TRIPOS>SUBSTRUCTURE
1   ZINC000000039451 1     RESIDUE    1   A     ZIN   1
