@<TRIPOS>MOLECULE
ZINC000058631630
38    41    1     0     0
SMALL
USER_CHARGES
@<TRIPOS>ATOM
1      C1     -0.0184    1.5028    0.0103 C.3      1 ZINC000058631630   -0.0600
2      C2      0.0021   -0.0041    0.0020 C.2      1 ZINC000058631630    0.1700
3      N3      0.0081   -0.7679   -1.0543 N.2      1 ZINC000058631630   -0.2800
4      N4      0.0264   -2.0024   -0.6924 N.2      1 ZINC000058631630   -0.2700
5      C5      0.0326   -2.0691    0.6184 C.2      1 ZINC000058631630    0.2100
6      C6      0.0531   -3.3021    1.4336 C.ar     1 ZINC000058631630   -0.0400
7      C7      0.0523   -3.2185    2.8307 C.ar     1 ZINC000058631630   -0.0600
8      C8      0.0711   -4.3491    3.5959 C.ar     1 ZINC000058631630   -0.1000
9      C9      0.0909   -5.6031    2.9943 C.ar     1 ZINC000058631630    0.0800
10     O10     0.1123   -6.8593    3.4848 O.3      1 ZINC000058631630   -0.1800
11     C11     0.1267   -7.7669    2.4948 C.2      1 ZINC000058631630    0.0400
12     C12     0.1154   -7.1421    1.2951 C.2      1 ZINC000058631630   -0.1400
13     C13     0.1243   -7.7787   -0.0438 C.ar     1 ZINC000058631630    0.0200
14     C14    -0.8033   -7.3904   -1.0093 C.ar     1 ZINC000058631630   -0.1200
15     C15    -0.7899   -7.9861   -2.2541 C.ar     1 ZINC000058631630   -0.0500
16     C16     0.1415   -8.9667   -2.5446 C.ar     1 ZINC000058631630   -0.4600
17     S17     0.1529   -9.7223   -4.1363 S.o      1 ZINC000058631630    1.3300
18     C18     1.2772   -8.6602   -5.0842 C.3      1 ZINC000058631630   -0.5000
19     O19    -1.1790   -9.5280   -4.5919 O.2      1 ZINC000058631630   -0.8500
20     C20     1.0645   -9.3560   -1.5905 C.ar     1 ZINC000058631630   -0.0400
21     C21     1.0640   -8.7637   -0.3441 C.ar     1 ZINC000058631630   -0.1300
22     C22     0.0915   -5.6979    1.5925 C.ar     1 ZINC000058631630   -0.1200
23     C23     0.0675   -4.5481    0.8125 C.ar     1 ZINC000058631630   -0.0100
24     O24     0.0232   -0.8036    1.0827 O.3      1 ZINC000058631630   -0.2200
25     H25     1.0042    1.8801    0.0026 H        1 ZINC000058631630    0.1000
26     H26    -0.5455    1.8639   -0.8728 H        1 ZINC000058631630    0.1100
27     H27    -0.5286    1.8543    0.9071 H        1 ZINC000058631630    0.1000
28     H28     0.0370   -2.2500    3.3082 H        1 ZINC000058631630    0.1500
29     H29     0.0709   -4.2695    4.6730 H        1 ZINC000058631630    0.1500
30     H30     0.1447   -8.8375    2.6359 H        1 ZINC000058631630    0.2200
31     H31    -1.5312   -6.6252   -0.7835 H        1 ZINC000058631630    0.1300
32     H32    -1.5083   -7.6864   -3.0027 H        1 ZINC000058631630    0.1300
33     H33     2.2603   -8.6602   -4.6135 H        1 ZINC000058631630    0.1100
34     H34     1.3621   -9.0387   -6.1029 H        1 ZINC000058631630    0.1100
35     H35     0.8847   -7.6436   -5.1059 H        1 ZINC000058631630    0.0800
36     H36     1.7894  -10.1221   -1.8229 H        1 ZINC000058631630    0.1400
37     H37     1.7852   -9.0681    0.3999 H        1 ZINC000058631630    0.1300
38     H38     0.0631   -4.6203   -0.2650 H        1 ZINC000058631630    0.1500
@<TRIPOS>BOND
1     1     2     1
2     1     25    1
3     1     26    1
4     1     27    1
5     2     24    1
6     2     3     2
7     3     4     1
8     4     5     2
9     5     6     1
10    5     24    1
11    6     23    ar
12    6     7     ar
13    7     8     ar
14    7     28    1
15    8     9     ar
16    8     29    1
17    9     22    ar
18    9     10    1
19    10    11    1
20    11    12    2
21    11    30    1
22    12    13    1
23    12    22    1
24    13    21    ar
25    13    14    ar
26    14    15    ar
27    14    31    1
28    15    16    ar
29    15    32    1
30    16    17    1
31    16    20    ar
32    17    18    1
33    17    19    2
34    18    33    1
35    18    34    1
36    18    35    1
37    20    21    ar
38    20    36    1
39    21    37    1
40    22    23    ar
41    23    38    1
@<TRIPOS>SUBSTRUCTURE
1   ZINC000058631630 1     RESIDUE    1   A     ZIN   1
