@<TRIPOS>MOLECULE
ZINC000040456394
  18   18    0    0    0
SMALL
USER_CHARGES
NO_NAME
@<TRIPOS>ATOM
    1 O1        0.1556     0.2445     1.1017 O.2    1 <0>      -0.5700
    2 C2        0.0652     1.3373     0.5835 C.2    1 <0>       0.4600
    3 N3        1.1435     1.8983     0.0013 N.am   1 <0>      -0.6300
    4 C4        2.3848     1.2661     0.0764 C.ar   1 <0>      -0.0600
    5 C5        2.4586    -0.1219     0.0565 C.ar   1 <0>      -0.0800
    6 C6        3.6814    -0.7507     0.1308 C.ar   1 <0>      -0.2100
    7 C7        4.8530     0.0072     0.2261 C.ar   1 <0>      -0.1000
    8 C8        6.1612    -0.6637     0.3051 C.2    1 <0>       0.5200
    9 O9        6.2242    -1.8853     0.2875 O.co2  1 <0>      -0.7100
   10 O10       7.1852     0.0005     0.3884 O.co2  1 <0>      -0.7100
   11 C11       4.7792     1.4046     0.2456 C.ar   1 <0>      -0.2200
   12 C12       3.5510     2.0289     0.1656 C.ar   1 <0>       0.2500
   13 O13       3.4757     3.3865     0.1839 O.3    1 <0>      -0.7700
   14 H14      -0.8805     1.8589     0.5848 H      1 <0>       0.1100
   15 H15       1.0565     2.7417    -0.4699 H      1 <0>       0.4000
   16 H16       1.5547    -0.7084    -0.0170 H      1 <0>       0.1000
   17 H17       3.7358    -1.8292     0.1159 H      1 <0>       0.1000
   18 H18       5.6817     1.9932     0.3191 H      1 <0>       0.1000
@<TRIPOS>BOND
   1    1    2 2
   2    2    3 am
   3    2   14 1
   4    3    4 1
   5    3   15 1
   6    4   12 ar
   7    4    5 ar
   8    5    6 ar
   9    5   16 1
  10    6    7 ar
  11    6   17 1
  12    7    8 1
  13    7   11 ar
  14    8    9 ar
  15    8   10 ar
  16   11   12 ar
  17   11   18 1
  18   12   13 1
