@<TRIPOS>MOLECULE
ZINC000003830401
  48   51    0    0    0
SMALL
USER_CHARGES
NO_NAME
@<TRIPOS>ATOM
    1 N1        0.2801     1.8238     0.4634 N.3    1 <0>      -0.8200
    2 C2        0.3208     0.3623     0.3208 C.3    1 <0>       0.1200
    3 H3       -0.6929    -0.0193     0.1992 H      1 <0>       0.1200
    4 C4        0.9420    -0.2454     1.5520 C.2    1 <0>       0.5300
    5 O5        1.6314     0.4348     2.2821 O.2    1 <0>      -0.5100
    6 N6        0.7315    -1.5447     1.8418 N.am   1 <0>      -0.7100
    7 C7        1.3353    -2.1354     3.0387 C.3    1 <0>       0.1300
    8 H8        2.2376    -1.6145     3.3593 H      1 <0>       0.1600
    9 C9        0.3435    -2.3849     4.1622 C.2    1 <0>       0.5300
   10 O10      -0.4414    -1.6880     4.7701 O.2    1 <0>      -0.4500
   11 N11       0.6811    -3.6849     4.2146 N.am   1 <0>      -0.5600
   12 C12       0.5737    -4.7632     5.1098 C.2    1 <0>       0.1600
   13 C13      -0.5592    -4.8327     6.0469 C.2    1 <0>       0.5300
   14 O14      -0.4898    -4.2740     7.1331 O.co2  1 <0>      -0.6600
   15 O15      -1.5704    -5.4491     5.7395 O.co2  1 <0>      -0.6500
   16 C16       1.4945    -5.7178     5.1097 C.2    1 <0>      -0.2200
   17 C17       1.3200    -6.7987     6.1452 C.3    1 <0>      -0.0400
   18 S18       0.6247    -8.2798     5.3620 S.3    1 <0>       0.0000
   19 C19       0.4945    -9.4139     6.7042 C.2    1 <0>       0.0400
   20 N20       0.8287    -9.1907     7.9604 N.2    1 <0>      -0.2800
   21 N21       0.5533   -10.3688     8.6684 N.pl3  1 <0>      -0.3200
   22 N22       0.0772   -11.2399     7.8492 N.2    1 <0>      -0.2300
   23 C23       0.0105   -10.7258     6.6472 C.2    1 <0>      -0.0200
   24 C24       2.6817    -5.8595     4.2150 C.3    1 <0>      -0.0200
   25 S25       3.1403    -4.2867     3.4252 S.3    1 <0>      -0.2200
   26 C26       1.4988    -3.6497     2.9580 C.3    1 <0>       0.1300
   27 H27       1.0576    -4.1323     2.0859 H      1 <0>       0.1400
   28 C28       1.1430    -0.0017    -0.8885 C.ar   1 <0>      -0.1300
   29 C29       2.3056     0.6928    -1.1672 C.ar   1 <0>      -0.0900
   30 C30       3.0610     0.3611    -2.2752 C.ar   1 <0>      -0.1400
   31 C31       2.6525    -0.6703    -3.1083 C.ar   1 <0>       0.1100
   32 O32       3.3942    -0.9989    -4.1987 O.3    1 <0>      -0.5000
   33 C33       1.4858    -1.3660    -2.8262 C.ar   1 <0>      -0.1400
   34 C34       0.7365    -1.0335    -1.7143 C.ar   1 <0>      -0.0900
   35 H35       1.2085     2.2020     0.5776 H      1 <0>       0.3500
   36 H36      -0.1903     2.2506    -0.3206 H      1 <0>       0.3500
   37 H37       0.1801    -2.0886     1.2579 H      1 <0>       0.4100
   38 H38       2.2877    -7.0404     6.5847 H      1 <0>       0.0900
   39 H39       0.6438    -6.4488     6.9252 H      1 <0>       0.1100
   40 H40       0.6975   -10.5049     9.6179 H      1 <0>       0.4600
   41 H41      -0.3496   -11.2297     5.7624 H      1 <0>       0.2000
   42 H42       3.5262    -6.2195     4.8025 H      1 <0>       0.1200
   43 H43       2.4549    -6.5914     3.4398 H      1 <0>       0.1000
   44 H44       2.6232     1.4957    -0.5184 H      1 <0>       0.1300
   45 H45       3.9687     0.9044    -2.4929 H      1 <0>       0.1300
   46 H46       4.0694    -1.6696    -4.0275 H      1 <0>       0.3900
   47 H47       1.1655    -2.1691    -3.4734 H      1 <0>       0.1300
   48 H48      -0.1717    -1.5750    -1.4941 H      1 <0>       0.1300
@<TRIPOS>BOND
   1    1    2 1
   2    1   35 1
   3    1   36 1
   4    2    3 1
   5    2    4 1
   6    2   28 1
   7    4    5 2
   8    4    6 am
   9    6    7 1
  10    6   37 1
  11    7    8 1
  12    7   26 1
  13    7    9 1
  14    9   10 2
  15    9   11 am
  16   11   26 1
  17   11   12 1
  18   12   13 1
  19   12   16 2
  20   13   14 ar
  21   13   15 ar
  22   16   17 1
  23   16   24 1
  24   17   18 1
  25   17   38 1
  26   17   39 1
  27   18   19 1
  28   19   23 1
  29   19   20 2
  30   20   21 1
  31   21   22 1
  32   21   40 1
  33   22   23 2
  34   23   41 1
  35   24   25 1
  36   24   42 1
  37   24   43 1
  38   25   26 1
  39   26   27 1
  40   28   34 ar
  41   28   29 ar
  42   29   30 ar
  43   29   44 1
  44   30   31 ar
  45   30   45 1
  46   31   32 1
  47   31   33 ar
  48   32   46 1
  49   33   34 ar
  50   33   47 1
  51   34   48 1
