@<TRIPOS>MOLECULE
ZINC000000899093
32    34    1     0     0
SMALL
USER_CHARGES
@<TRIPOS>ATOM
1      C1     -0.0173    1.4248    0.0099 C.3      1 ZINC000000899093    0.0300
2      O2      0.0021   -0.0041    0.0020 O.3      1 ZINC000000899093   -0.3000
3      C3     -1.2036   -0.6392    0.0101 C.2      1 ZINC000000899093    0.0100
4      C4     -2.3742    0.0960    0.0195 C.2      1 ZINC000000899093    0.0400
5      O5     -2.3373    1.4464    0.0207 O.3      1 ZINC000000899093   -0.2100
6      C6     -3.4649    2.1753    0.0293 C.2      1 ZINC000000899093    0.1900
7      C7     -3.3718    3.6478    0.0303 C.ar     1 ZINC000000899093   -0.0600
8      C8     -4.5332    4.4246    0.0450 C.ar     1 ZINC000000899093   -0.0900
9      C9     -4.4384    5.8005    0.0463 C.ar     1 ZINC000000899093   -0.1200
10     C10    -3.1970    6.4120    0.0326 C.ar     1 ZINC000000899093   -0.1000
11     C11    -2.0425    5.6490    0.0179 C.ar     1 ZINC000000899093   -0.1200
12     C12    -2.1218    4.2722    0.0223 C.ar     1 ZINC000000899093   -0.0900
13     C13    -4.7070    1.5791    0.0368 C.2      1 ZINC000000899093   -0.3100
14     C14    -4.8088    0.1844    0.0360 C.2      1 ZINC000000899093    0.2500
15     O15    -6.0165   -0.4212    0.0428 O.3      1 ZINC000000899093   -0.4000
16     C16    -3.6187   -0.5756    0.0273 C.2      1 ZINC000000899093   -0.2000
17     C17    -3.6612   -1.9846    0.0265 C.2      1 ZINC000000899093    0.3300
18     O18    -4.8560   -2.6290    0.0332 O.3      1 ZINC000000899093   -0.6600
19     C19    -2.4979   -2.7001    0.0186 C.2      1 ZINC000000899093   -0.4200
20     C20    -1.2602   -2.0395    0.0031 C.2      1 ZINC000000899093    0.3500
21     O21    -0.1287   -2.7496   -0.0050 O.2      1 ZINC000000899093   -0.6400
22     H22     1.0053    1.8021    0.0021 H        1 ZINC000000899093    0.0900
23     H23    -0.5445    1.7859   -0.8732 H        1 ZINC000000899093    0.0500
24     H24    -0.5275    1.7763    0.9067 H        1 ZINC000000899093    0.0500
25     H25    -5.5026    3.9488    0.0551 H        1 ZINC000000899093    0.1300
26     H26    -5.3352    6.4022    0.0577 H        1 ZINC000000899093    0.1300
27     H27    -3.1289    7.4898    0.0330 H        1 ZINC000000899093    0.1300
28     H28    -1.0771    6.1330    0.0069 H        1 ZINC000000899093    0.1300
29     H29    -1.2200    3.6780    0.0111 H        1 ZINC000000899093    0.1400
30     H30    -5.5995    2.1871    0.0437 H        1 ZINC000000899093    0.1500
31     H31    -6.7640    0.1922    0.0481 H        1 ZINC000000899093    0.3800
32     H32    -2.5310   -3.7796    0.0183 H        1 ZINC000000899093    0.1100
@<TRIPOS>BOND
1     1     2     1
2     1     22    1
3     1     23    1
4     1     24    1
5     2     3     1
6     3     20    1
7     3     4     2
8     4     16    1
9     4     5     1
10    5     6     1
11    6     7     1
12    6     13    2
13    7     12    ar
14    7     8     ar
15    8     9     ar
16    8     25    1
17    9     10    ar
18    9     26    1
19    10    11    ar
20    10    27    1
21    11    12    ar
22    11    28    1
23    12    29    1
24    13    14    1
25    13    30    1
26    14    15    1
27    14    16    2
28    15    31    1
29    16    17    1
30    17    18    1
31    17    19    2
32    19    20    1
33    19    32    1
34    20    21    2
@<TRIPOS>SUBSTRUCTURE
1   ZINC000000899093 1     RESIDUE    1   A     ZIN   1
