@<TRIPOS>MOLECULE
ZINC000003834201
32    34    1     0     0
SMALL
USER_CHARGES
@<TRIPOS>ATOM
1      C1      1.4176    1.1429   -0.4052 C.3      1 ZINC000003834201   -0.0900
2      C2      0.7045   -0.1663   -0.1848 C.2      1 ZINC000003834201    0.0500
3      C3     -0.2958   -0.6584   -0.9572 C.2      1 ZINC000003834201   -0.2000
4      C4     -0.6860   -1.8884   -0.4243 C.2      1 ZINC000003834201   -0.1000
5      C5     -1.7657   -2.7941   -0.9583 C.3      1 ZINC000003834201   -0.0900
6      C6      0.1079   -2.1196    0.6885 C.2      1 ZINC000003834201   -0.0100
7      C7      0.0545   -3.2484    1.5320 C.2      1 ZINC000003834201    0.0700
8      C8      0.1625   -3.0937    2.9009 C.2      1 ZINC000003834201   -0.1900
9      C9      0.3067   -4.1502    3.9105 C.2      1 ZINC000003834201    0.5600
10     O10     0.3535   -5.3478    3.6917 O.2      1 ZINC000003834201   -0.5000
11     N11     0.3780   -3.5649    5.1181 N.am     1 ZINC000003834201   -0.6500
12     C12     0.2937   -2.1819    5.0162 C.ar     1 ZINC000003834201    0.1400
13     C13     0.3212   -1.1790    5.9787 C.ar     1 ZINC000003834201   -0.1400
14     C14     0.2166    0.1450    5.6026 C.ar     1 ZINC000003834201   -0.0800
15     C15     0.0830    0.4911    4.2684 C.ar     1 ZINC000003834201   -0.1400
16     C16     0.0537   -0.4904    3.2982 C.ar     1 ZINC000003834201   -0.0900
17     C17     0.1644   -1.8272    3.6661 C.ar     1 ZINC000003834201   -0.1000
18     N18     0.9634   -1.0461    0.8151 N.pl3    1 ZINC000003834201   -0.5400
19     H19     2.2780    0.9831   -1.0550 H        1 ZINC000003834201    0.0800
20     H20     0.7361    1.8535   -0.8729 H        1 ZINC000003834201    0.0900
21     H21     1.7543    1.5391    0.5528 H        1 ZINC000003834201    0.0700
22     H22    -0.7167   -0.1825   -1.8306 H        1 ZINC000003834201    0.1400
23     H23    -1.3339   -3.4882   -1.6794 H        1 ZINC000003834201    0.0700
24     H24    -2.2097   -3.3544   -0.1355 H        1 ZINC000003834201    0.0600
25     H25    -2.5343   -2.1947   -1.4463 H        1 ZINC000003834201    0.0700
26     H26    -0.0708   -4.2338    1.1082 H        1 ZINC000003834201    0.1500
27     H27     0.4757   -4.0467    5.9543 H        1 ZINC000003834201    0.4200
28     H28     0.4243   -1.4364    7.0225 H        1 ZINC000003834201    0.1300
29     H29     0.2388    0.9184    6.3561 H        1 ZINC000003834201    0.1300
30     H30     0.0013    1.5305    3.9866 H        1 ZINC000003834201    0.1300
31     H31    -0.0509   -0.2213    2.2575 H        1 ZINC000003834201    0.1400
32     H32     1.6343   -0.9355    1.5069 H        1 ZINC000003834201    0.4200
@<TRIPOS>BOND
1     1     2     1
2     1     19    1
3     1     20    1
4     1     21    1
5     2     18    1
6     2     3     2
7     3     4     1
8     3     22    1
9     4     5     1
10    4     6     2
11    5     23    1
12    5     24    1
13    5     25    1
14    6     7     1
15    6     18    1
16    7     8     2
17    7     26    1
18    8     17    1
19    8     9     1
20    9     10    2
21    9     11    am
22    11    12    1
23    11    27    1
24    12    17    ar
25    12    13    ar
26    13    14    ar
27    13    28    1
28    14    15    ar
29    14    29    1
30    15    16    ar
31    15    30    1
32    16    17    ar
33    16    31    1
34    18    32    1
@<TRIPOS>SUBSTRUCTURE
1   ZINC000003834201 1     RESIDUE    1   A     ZIN   1
