@<TRIPOS>MOLECULE
ZINC000136883664
49    52    1     0     0
SMALL
USER_CHARGES
@<TRIPOS>ATOM
1      C1      4.4338    4.1064    2.0234 C.3      1 ZINC000136883664   -0.1800
2      C2      4.7781    3.7299    0.5810 C.3      1 ZINC000136883664    0.0100
3      H3      4.9177    4.6371   -0.0069 H        1 ZINC000136883664    0.1400
4      N4      6.0159    2.9413    0.5640 N.4      1 ZINC000136883664   -0.5000
5      H5      5.8709    2.0787    1.0671 H        1 ZINC000136883664    0.4300
6      H6      6.7539    3.4678    1.0069 H        1 ZINC000136883664    0.4300
7      C7      6.3955    2.6400   -0.8215 C.3      1 ZINC000136883664   -0.0100
8      C8      5.3154    1.7742   -1.4736 C.3      1 ZINC000136883664   -0.1400
9      C9      3.9847    2.5320   -1.4605 C.3      1 ZINC000136883664   -0.1500
10     C10     3.6357    2.9061   -0.0171 C.3      1 ZINC000136883664    0.1500
11     H11     3.4943    1.9987    0.5701 H        1 ZINC000136883664    0.1200
12     N12     2.4022    3.6963   -0.0011 N.pl3    1 ZINC000136883664   -0.7100
13     C13     1.1751    3.0614    0.0073 C.ar     1 ZINC000136883664    0.4700
14     C14    -0.0132    3.8372    0.0232 C.ar     1 ZINC000136883664   -0.1700
15     C15    -0.1867    5.2756    0.0335 C.2      1 ZINC000136883664   -0.1100
16     C16    -1.4558    5.6829    0.0486 C.2      1 ZINC000136883664   -0.1400
17     C17    -1.8784    7.0997    0.0613 C.ar     1 ZINC000136883664   -0.0300
18     C18    -0.9222    8.1163    0.0636 C.ar     1 ZINC000136883664   -0.1000
19     C19    -1.3233    9.4363    0.0692 C.ar     1 ZINC000136883664   -0.1200
20     C20    -2.6700    9.7532    0.0849 C.ar     1 ZINC000136883664   -0.1100
21     C21    -3.6229    8.7501    0.0884 C.ar     1 ZINC000136883664   -0.1100
22     C22    -3.2352    7.4261    0.0767 C.ar     1 ZINC000136883664   -0.1100
23     S23    -2.5589    4.3197    0.0514 S.3      1 ZINC000136883664    0.2400
24     C24    -1.2371    3.1634    0.0313 C.ar     1 ZINC000136883664   -0.0500
25     C25    -1.2320    1.7459    0.0174 C.ar     1 ZINC000136883664   -0.2000
26     C26    -2.4973    0.9943    0.0194 C.2      1 ZINC000136883664    0.5700
27     N27    -2.4806   -0.3533    0.0121 N.am     1 ZINC000136883664   -0.8500
28     O28    -3.5582    1.5894    0.0277 O.2      1 ZINC000136883664   -0.5300
29     C29    -0.0126    1.0758    0.0080 C.ar     1 ZINC000136883664    0.1900
30     N30     1.1254    1.7421    0.0007 N.ar     1 ZINC000136883664   -0.5500
31     H31     4.2927    3.1997    2.6118 H        1 ZINC000136883664    0.0800
32     H32     5.2473    4.6932    2.4499 H        1 ZINC000136883664    0.0900
33     H33     3.5161    4.6944    2.0363 H        1 ZINC000136883664    0.1100
34     H34     7.3443    2.1035   -0.8294 H        1 ZINC000136883664    0.1400
35     H35     6.5007    3.5704   -1.3795 H        1 ZINC000136883664    0.1300
36     H36     5.2096    0.8433   -0.9165 H        1 ZINC000136883664    0.0900
37     H37     5.5978    1.5524   -2.5027 H        1 ZINC000136883664    0.1200
38     H38     3.1999    1.8977   -1.8725 H        1 ZINC000136883664    0.1000
39     H39     4.0751    3.4378   -2.0601 H        1 ZINC000136883664    0.0800
40     H40     2.4470    4.6653    0.0037 H        1 ZINC000136883664    0.4200
41     H41     0.6461    5.9632    0.0290 H        1 ZINC000136883664    0.1400
42     H42     0.1293    7.8702    0.0562 H        1 ZINC000136883664    0.1200
43     H43    -0.5844   10.2240    0.0665 H        1 ZINC000136883664    0.1300
44     H44    -2.9787   10.7881    0.0941 H        1 ZINC000136883664    0.1300
45     H45    -4.6726    9.0041    0.1000 H        1 ZINC000136883664    0.1300
46     H46    -3.9800    6.6441    0.0798 H        1 ZINC000136883664    0.1200
47     H47    -1.6346   -0.8279    0.0054 H        1 ZINC000136883664    0.4000
48     H48    -3.3146   -0.8487    0.0134 H        1 ZINC000136883664    0.4100
49     H49     0.0021   -0.0041    0.0020 H        1 ZINC000136883664    0.1700
@<TRIPOS>BOND
1     1     2     1
2     1     31    1
3     1     32    1
4     1     33    1
5     2     3     1
6     2     10    1
7     2     4     1
8     4     5     1
9     4     6     1
10    4     7     1
11    7     8     1
12    7     34    1
13    7     35    1
14    8     9     1
15    8     36    1
16    8     37    1
17    9     10    1
18    9     38    1
19    9     39    1
20    10    11    1
21    10    12    1
22    12    13    1
23    12    40    1
24    13    30    ar
25    13    14    ar
26    14    24    ar
27    14    15    1
28    15    16    2
29    15    41    1
30    16    17    1
31    16    23    1
32    17    22    ar
33    17    18    ar
34    18    19    ar
35    18    42    1
36    19    20    ar
37    19    43    1
38    20    21    ar
39    20    44    1
40    21    22    ar
41    21    45    1
42    22    46    1
43    23    24    1
44    24    25    ar
45    25    26    1
46    25    29    ar
47    26    27    am
48    26    28    2
49    27    47    1
50    27    48    1
51    29    30    ar
52    29    49    1
@<TRIPOS>SUBSTRUCTURE
1   ZINC000136883664 1     RESIDUE    1   A     ZIN   1
