@<TRIPOS>MOLECULE
ZINC000006823436
35    37    1     0     0
SMALL
USER_CHARGES
@<TRIPOS>ATOM
1      C1     -0.0225    1.8097    0.0120 C.3      1 ZINC000006823436   -0.2000
2      S2      0.0021   -0.0041    0.0020 S.3      1 ZINC000006823436    0.0000
3      C3      0.8516   -0.3807   -1.4950 C.ar     1 ZINC000006823436   -0.0400
4      C4      1.3105    0.6436   -2.3149 C.ar     1 ZINC000006823436   -0.1500
5      C5      1.9752    0.3458   -3.4864 C.ar     1 ZINC000006823436   -0.0600
6      C6      2.1910   -0.9726   -3.8558 C.ar     1 ZINC000006823436   -0.1400
7      C7      1.7434   -2.0020   -3.0569 C.ar     1 ZINC000006823436   -0.0600
8      C8      1.0738   -1.7180   -1.8638 C.ar     1 ZINC000006823436   -0.1300
9      C9      0.5925   -2.8139   -1.0046 C.2      1 ZINC000006823436    0.5600
10     O10     0.0101   -2.5622    0.0329 O.2      1 ZINC000006823436   -0.4700
11     N11     0.7975   -4.0953   -1.3686 N.am     1 ZINC000006823436   -0.6200
12     C12     0.3440   -5.1279   -0.5590 C.2      1 ZINC000006823436    0.2700
13     N13     0.4892   -6.3921   -0.8058 N.2      1 ZINC000006823436   -0.5000
14     C14    -0.0100   -7.2406    0.0830 C.2      1 ZINC000006823436    0.1200
15     C15     0.0898   -8.7098   -0.0810 C.ar     1 ZINC000006823436    0.1900
16     C16     0.7319   -9.2387   -1.1999 C.ar     1 ZINC000006823436   -0.1400
17     C17     0.8175  -10.6126   -1.3388 C.ar     1 ZINC000006823436   -0.0800
18     C18     0.2578  -11.4147   -0.3537 C.ar     1 ZINC000006823436   -0.1700
19     C19    -0.3644  -10.8236    0.7299 C.ar     1 ZINC000006823436    0.1000
20     N20    -0.4281   -9.5121    0.8413 N.ar     1 ZINC000006823436   -0.4800
21     C21    -0.6133   -6.6742    1.1446 C.2      1 ZINC000006823436   -0.2500
22     S22    -0.5115   -4.9240    0.9667 S.3      1 ZINC000006823436    0.2200
23     H23     1.0001    2.1870    0.0043 H        1 ZINC000006823436    0.0800
24     H24    -0.5497    2.1708   -0.8711 H        1 ZINC000006823436    0.0800
25     H25    -0.5327    2.1613    0.9088 H        1 ZINC000006823436    0.1100
26     H26     1.1462    1.6736   -2.0346 H        1 ZINC000006823436    0.1400
27     H27     2.3296    1.1453   -4.1202 H        1 ZINC000006823436    0.1300
28     H28     2.7126   -1.1942   -4.7751 H        1 ZINC000006823436    0.1400
29     H29     1.9139   -3.0273   -3.3502 H        1 ZINC000006823436    0.1300
30     H30     1.2620   -4.2960   -2.1962 H        1 ZINC000006823436    0.4200
31     H31     1.1561   -8.5852   -1.9478 H        1 ZINC000006823436    0.1400
32     H32     1.3085  -11.0513   -2.1948 H        1 ZINC000006823436    0.1400
33     H33     0.3078  -12.4906   -0.4333 H        1 ZINC000006823436    0.1400
34     H34    -0.8009  -11.4452    1.4977 H        1 ZINC000006823436    0.1600
35     H35    -1.0757   -7.2014    1.9660 H        1 ZINC000006823436    0.1900
@<TRIPOS>BOND
1     1     2     1
2     1     23    1
3     1     24    1
4     1     25    1
5     2     3     1
6     3     8     ar
7     3     4     ar
8     4     5     ar
9     4     26    1
10    5     6     ar
11    5     27    1
12    6     7     ar
13    6     28    1
14    7     8     ar
15    7     29    1
16    8     9     1
17    9     10    2
18    9     11    am
19    11    12    1
20    11    30    1
21    12    22    1
22    12    13    2
23    13    14    1
24    14    15    1
25    14    21    2
26    15    20    ar
27    15    16    ar
28    16    17    ar
29    16    31    1
30    17    18    ar
31    17    32    1
32    18    19    ar
33    18    33    1
34    19    20    ar
35    19    34    1
36    21    22    1
37    21    35    1
@<TRIPOS>SUBSTRUCTURE
1   ZINC000006823436 1     RESIDUE    1   A     ZIN   1
