@<TRIPOS>MOLECULE
ZINC000003874886
64    67    1     0     0
SMALL
USER_CHARGES
@<TRIPOS>ATOM
1      C1     -1.3481    0.3194    0.7088 C.3      1 ZINC000003874886   -0.1900
2      C2     -0.0430   -0.0312    0.0419 C.2      1 ZINC000003874886    0.4400
3      O3      1.0043    0.3605    0.5143 O.2      1 ZINC000003874886   -0.4700
4      C4     -0.0382   -0.8427   -1.1734 C.ar     1 ZINC000003874886   -0.2500
5      C5     -0.0065   -0.2248   -2.4375 C.ar     1 ZINC000003874886    0.1300
6      O6      0.0198    1.1277   -2.5332 O.3      1 ZINC000003874886   -0.5000
7      C7     -0.0017   -1.0010   -3.5811 C.ar     1 ZINC000003874886   -0.1800
8      C8      0.0327   -0.3420   -4.9360 C.3      1 ZINC000003874886   -0.0900
9      C9     -0.0282   -2.3867   -3.4857 C.ar     1 ZINC000003874886    0.1700
10     O10    -0.0228   -3.1401   -4.6140 O.3      1 ZINC000003874886   -0.4800
11     C11    -0.0596   -3.0062   -2.2422 C.ar     1 ZINC000003874886   -0.1000
12     C12    -0.0881   -4.5103   -2.1529 C.3      1 ZINC000003874886    0.0300
13     C13     1.3228   -5.0371   -2.1000 C.ar     1 ZINC000003874886   -0.4000
14     C14     1.9889   -5.3446   -3.2782 C.ar     1 ZINC000003874886    0.3500
15     O15     1.3712   -5.1704   -4.4732 O.3      1 ZINC000003874886   -0.7400
16     C16     3.2978   -5.8337   -3.2313 C.ar     1 ZINC000003874886   -0.3700
17     C17     3.9384   -6.0139   -2.0012 C.ar     1 ZINC000003874886    0.2400
18     O18     5.2068   -6.4899   -1.9854 O.3      1 ZINC000003874886   -0.3300
19     C19     5.5628   -7.4283   -3.0016 C.3      1 ZINC000003874886    0.1700
20     C20     7.0804   -7.6225   -3.0003 C.3      1 ZINC000003874886   -0.1300
21     C21     4.8822   -8.7678   -2.7127 C.3      1 ZINC000003874886   -0.1600
22     C22     5.1264   -6.9316   -4.3548 C.2      1 ZINC000003874886   -0.3400
23     C23     4.0375   -6.1725   -4.4655 C.2      1 ZINC000003874886    0.0300
24     C24     3.2630   -5.7022   -0.8160 C.ar     1 ZINC000003874886   -0.4000
25     C25     3.9257   -5.8866    0.4849 C.2      1 ZINC000003874886    0.4900
26     O26     3.9013   -6.9747    1.0320 O.2      1 ZINC000003874886   -0.4900
27     C27     4.6144   -4.7621    1.1216 C.2      1 ZINC000003874886   -0.1500
28     C28     5.1300   -4.9010    2.3606 C.2      1 ZINC000003874886   -0.1000
29     C29     5.8221   -3.7709    3.0005 C.ar     1 ZINC000003874886   -0.0400
30     C30     5.9425   -2.5495    2.3299 C.ar     1 ZINC000003874886   -0.1100
31     C31     6.5921   -1.4953    2.9364 C.ar     1 ZINC000003874886   -0.1200
32     C32     7.1242   -1.6434    4.2055 C.ar     1 ZINC000003874886   -0.1300
33     C33     7.0096   -2.8491    4.8755 C.ar     1 ZINC000003874886   -0.1300
34     C34     6.3579   -3.9110    4.2849 C.ar     1 ZINC000003874886   -0.1100
35     C35     1.9485   -5.2061   -0.8772 C.ar     1 ZINC000003874886    0.3600
36     O36     1.2876   -4.9015    0.2674 O.3      1 ZINC000003874886   -0.7300
37     C37    -0.0594   -2.2477   -1.0872 C.ar     1 ZINC000003874886    0.1800
38     O38    -0.0897   -2.8545    0.1252 O.3      1 ZINC000003874886   -0.4900
39     H39    -1.6802    1.2990    0.3649 H        1 ZINC000003874886    0.0900
40     H40    -2.0988   -0.4288    0.4540 H        1 ZINC000003874886    0.0900
41     H41    -1.2094    0.3415    1.7897 H        1 ZINC000003874886    0.0800
42     H42     0.9106    1.5038   -2.5466 H        1 ZINC000003874886    0.3800
43     H43     1.0684   -0.2019   -5.2456 H        1 ZINC000003874886    0.0600
44     H44    -0.4808   -0.9740   -5.6605 H        1 ZINC000003874886    0.0700
45     H45    -0.4645    0.6265   -4.8817 H        1 ZINC000003874886    0.0600
46     H46     0.8619   -3.3744   -4.9263 H        1 ZINC000003874886    0.4000
47     H47    -0.6222   -4.8107   -1.2515 H        1 ZINC000003874886    0.0600
48     H48    -0.5951   -4.9166   -3.0281 H        1 ZINC000003874886    0.0600
49     H49     7.3976   -7.9993   -2.0279 H        1 ZINC000003874886    0.0500
50     H50     7.3558   -8.3382   -3.7748 H        1 ZINC000003874886    0.0600
51     H51     7.5690   -6.6682   -3.1971 H        1 ZINC000003874886    0.0600
52     H52     3.8008   -8.6315   -2.7041 H        1 ZINC000003874886    0.0600
53     H53     5.1517   -9.4866   -3.4865 H        1 ZINC000003874886    0.0500
54     H54     5.2092   -9.1395   -1.7416 H        1 ZINC000003874886    0.0500
55     H55     5.6964   -7.1904   -5.2349 H        1 ZINC000003874886    0.0900
56     H56     3.7045   -5.8153   -5.4288 H        1 ZINC000003874886    0.1000
57     H57     4.7097   -3.8215    0.5994 H        1 ZINC000003874886    0.1200
58     H58     5.0347   -5.8416    2.8828 H        1 ZINC000003874886    0.1300
59     H59     5.5281   -2.4325    1.3394 H        1 ZINC000003874886    0.1300
60     H60     6.6862   -0.5516    2.4197 H        1 ZINC000003874886    0.1200
61     H61     7.6319   -0.8140    4.6753 H        1 ZINC000003874886    0.1200
62     H62     7.4278   -2.9570    5.8654 H        1 ZINC000003874886    0.1200
63     H63     6.2693   -4.8512    4.8089 H        1 ZINC000003874886    0.1200
64     H64     0.7847   -3.0496    0.4893 H        1 ZINC000003874886    0.4100
@<TRIPOS>BOND
1     1     2     1
2     1     39    1
3     1     40    1
4     1     41    1
5     2     3     2
6     2     4     1
7     4     37    ar
8     4     5     ar
9     5     6     1
10    5     7     ar
11    6     42    1
12    7     8     1
13    7     9     ar
14    8     43    1
15    8     44    1
16    8     45    1
17    9     10    1
18    9     11    ar
19    10    46    1
20    11    12    1
21    11    37    ar
22    12    13    1
23    12    47    1
24    12    48    1
25    13    35    ar
26    13    14    ar
27    14    15    1
28    14    16    ar
29    16    23    1
30    16    17    ar
31    17    18    1
32    17    24    ar
33    18    19    1
34    19    20    1
35    19    21    1
36    19    22    1
37    20    49    1
38    20    50    1
39    20    51    1
40    21    52    1
41    21    53    1
42    21    54    1
43    22    23    2
44    22    55    1
45    23    56    1
46    24    25    1
47    24    35    ar
48    25    26    2
49    25    27    1
50    27    28    2
51    27    57    1
52    28    29    1
53    28    58    1
54    29    34    ar
55    29    30    ar
56    30    31    ar
57    30    59    1
58    31    32    ar
59    31    60    1
60    32    33    ar
61    32    61    1
62    33    34    ar
63    33    62    1
64    34    63    1
65    35    36    1
66    37    38    1
67    38    64    1
@<TRIPOS>SUBSTRUCTURE
1   ZINC000003874886 1     RESIDUE    1   A     ZIN   1
