@<TRIPOS>MOLECULE
ZINC000003814434
  62   69    0    0    0
SMALL
USER_CHARGES
NO_NAME
@<TRIPOS>ATOM
    1 C1       -0.9661     1.0031     0.4683 C.3    1 <0>      -0.0500
    2 N2        0.0189     0.0032     0.0346 N.4    1 <0>      -0.5200
    3 H3       -0.4575    -0.7682    -0.4082 H      1 <0>       0.4300
    4 H4        0.6591     0.4245    -0.6217 H      1 <0>       0.4300
    5 C5        0.7653    -0.4868     1.2011 C.3    1 <0>      -0.0100
    6 H6        0.4030     0.0058     2.1034 H      1 <0>       0.1600
    7 C7        2.2595    -0.1983     1.0181 C.3    1 <0>      -0.1800
    8 C8        2.7619    -0.9023    -0.2361 C.3    1 <0>       0.3000
    9 H9        3.8508    -0.8586    -0.2138 H      1 <0>       0.1600
   10 O10       2.4012    -2.2646    -0.2735 O.3    1 <0>      -0.3200
   11 C11       1.0934    -2.6719     0.0586 C.3    1 <0>       0.3300
   12 C12       1.1521    -4.1700     0.3640 C.3    1 <0>      -0.1700
   13 C13       0.5850    -2.0035     1.3313 C.3    1 <0>       0.0400
   14 H14       1.1399    -2.3845     2.1886 H      1 <0>       0.1400
   15 O15      -0.8050    -2.2900     1.4976 O.3    1 <0>      -0.3600
   16 C16      -1.2299    -2.3358     2.8612 C.3    1 <0>       0.0200
   17 N17       0.1539    -2.4960    -1.0500 N.pl3  1 <0>      -0.5100
   18 C18      -0.9555    -3.2665    -1.3051 C.ar   1 <0>       0.1500
   19 C19      -1.5981    -2.7707    -2.4611 C.ar   1 <0>      -0.1000
   20 C20      -2.7601    -3.3595    -2.9591 C.ar   1 <0>      -0.0500
   21 C21      -3.2512    -4.4544    -2.2672 C.ar   1 <0>      -0.1300
   22 C22      -2.6226    -4.9436    -1.1358 C.ar   1 <0>      -0.0700
   23 C23      -1.4695    -4.3706    -0.6261 C.ar   1 <0>      -0.1300
   24 C24      -0.8079    -1.6281    -2.9233 C.ar   1 <0>      -0.0400
   25 C25       0.2584    -1.5088    -2.0185 C.ar   1 <0>       0.0800
   26 C26       1.2121    -0.4989    -2.1905 C.ar   1 <0>       0.0500
   27 C27       1.1050     0.3895    -3.2623 C.ar   1 <0>       0.0100
   28 C28       2.2461     1.2937    -3.1535 C.ar   1 <0>      -0.1100
   29 C29       2.6635     2.3660    -3.9439 C.ar   1 <0>      -0.0300
   30 C30       3.8158     3.0230    -3.5467 C.ar   1 <0>      -0.1400
   31 C31       4.5234     2.6394    -2.4210 C.ar   1 <0>      -0.0600
   32 C32       4.1270     1.5772    -1.6258 C.ar   1 <0>      -0.1400
   33 C33       2.9702     0.8975    -2.0046 C.ar   1 <0>       0.1300
   34 N34       2.3272    -0.1879    -1.4373 N.pl3  1 <0>      -0.5400
   35 C35       0.0235     0.2714    -4.1666 C.ar   1 <0>      -0.1200
   36 C36      -0.9183    -0.7356    -3.9848 C.ar   1 <0>      -0.0300
   37 C37      -1.9244    -0.5868    -5.0999 C.3    1 <0>       0.1400
   38 N38      -1.4787     0.5585    -5.9015 N.am   1 <0>      -0.7200
   39 C39      -0.3518     1.0487    -5.3578 C.2    1 <0>       0.5600
   40 O40       0.2696     2.0011    -5.7892 O.2    1 <0>      -0.5100
   41 H41      -0.4515     1.8364     0.9466 H      1 <0>       0.1200
   42 H42      -1.5200     1.3667    -0.3973 H      1 <0>       0.1300
   43 H43      -1.6578     0.5480     1.1772 H      1 <0>       0.1300
   44 H44       2.4126     0.8763     0.9178 H      1 <0>       0.1200
   45 H45       2.8092    -0.5644     1.8853 H      1 <0>       0.1500
   46 H46       2.0849    -4.3996     0.8789 H      1 <0>       0.1000
   47 H47       0.3096    -4.4447     0.9987 H      1 <0>       0.1000
   48 H48       1.1035    -4.7330    -0.5681 H      1 <0>       0.0900
   49 H49      -2.2962    -2.5584     2.9022 H      1 <0>       0.1100
   50 H50      -0.6761    -3.1126     3.3884 H      1 <0>       0.0600
   51 H51      -1.0416    -1.3715     3.3331 H      1 <0>       0.0500
   52 H52      -3.2535    -2.9798    -3.8415 H      1 <0>       0.1400
   53 H53      -4.1490    -4.9395    -2.6206 H      1 <0>       0.1300
   54 H54      -3.0458    -5.8006    -0.6330 H      1 <0>       0.1300
   55 H55      -0.9887    -4.7625     0.2580 H      1 <0>       0.1400
   56 H56       2.1142     2.6684    -4.8232 H      1 <0>       0.1600
   57 H57       4.1724     3.8577    -4.1318 H      1 <0>       0.1400
   58 H58       5.4152     3.1868    -2.1538 H      1 <0>       0.1400
   59 H59       4.6894     1.2880    -0.7504 H      1 <0>       0.1400
   60 H60      -1.9419    -1.4886    -5.7118 H      1 <0>       0.1100
   61 H61      -2.9148    -0.3933    -4.6879 H      1 <0>       0.1100
   62 H62      -1.9231     0.9040    -6.6914 H      1 <0>       0.4300
@<TRIPOS>BOND
   1    1    2 1
   2    1   41 1
   3    1   42 1
   4    1   43 1
   5    2    3 1
   6    2    4 1
   7    2    5 1
   8    5    6 1
   9    5   13 1
  10    5    7 1
  11    7    8 1
  12    7   44 1
  13    7   45 1
  14    8    9 1
  15    8   34 1
  16    8   10 1
  17   10   11 1
  18   11   12 1
  19   11   13 1
  20   11   17 1
  21   12   46 1
  22   12   47 1
  23   12   48 1
  24   13   14 1
  25   13   15 1
  26   15   16 1
  27   16   49 1
  28   16   50 1
  29   16   51 1
  30   17   25 1
  31   17   18 1
  32   18   23 ar
  33   18   19 ar
  34   19   20 ar
  35   19   24 1
  36   20   21 ar
  37   20   52 1
  38   21   22 ar
  39   21   53 1
  40   22   23 ar
  41   22   54 1
  42   23   55 1
  43   24   36 ar
  44   24   25 ar
  45   25   26 ar
  46   26   34 1
  47   26   27 ar
  48   27   28 1
  49   27   35 ar
  50   28   33 ar
  51   28   29 ar
  52   29   30 ar
  53   29   56 1
  54   30   31 ar
  55   30   57 1
  56   31   32 ar
  57   31   58 1
  58   32   33 ar
  59   32   59 1
  60   33   34 1
  61   35   39 1
  62   35   36 ar
  63   36   37 1
  64   37   38 1
  65   37   60 1
  66   37   61 1
  67   38   39 am
  68   38   62 1
  69   39   40 2
