@<TRIPOS>MOLECULE
ZINC000006818428
39    41    1     0     0
SMALL
USER_CHARGES
@<TRIPOS>ATOM
1      C1     -0.0178    1.4608    0.0101 C.3      1 ZINC000006818428    0.0800
2      N2      0.0021   -0.0041    0.0020 N.am     1 ZINC000006818428   -0.9700
3      C3      0.0241   -0.7433    1.2666 C.3      1 ZINC000006818428    0.2100
4      C4     -1.3844   -0.9091    1.7762 C.2      1 ZINC000006818428   -0.0500
5      C5     -2.2053   -1.9380    1.4987 C.2      1 ZINC000006818428   -0.1800
6      C6     -3.4191   -1.6887    2.1795 C.2      1 ZINC000006818428   -0.2200
7      C7     -3.2673   -0.5224    2.8322 C.2      1 ZINC000006818428   -0.0300
8      O8     -2.0310   -0.0577    2.5890 O.3      1 ZINC000006818428   -0.1700
9      S9     -0.0004   -0.8243   -1.4366 S.o2     1 ZINC000006818428    2.7200
10     O10    -0.5247   -2.1160   -1.1611 O.2      1 ZINC000006818428   -0.9200
11     O11    -0.5660    0.0551   -2.3989 O.2      1 ZINC000006818428   -0.9300
12     C12     1.6816   -1.0597   -1.9056 C.2      1 ZINC000006818428   -0.5800
13     N13     2.7201   -0.6674   -1.2407 N.2      1 ZINC000006818428   -0.1100
14     N14     3.8587   -0.9190   -1.7206 N.2      1 ZINC000006818428   -0.2700
15     C15     3.9089   -1.5575   -2.8541 C.2      1 ZINC000006818428    0.2900
16     N16     5.0615   -1.9242   -3.5384 N.am     1 ZINC000006818428   -0.6200
17     C17     6.2722   -1.6177   -3.0318 C.2      1 ZINC000006818428    0.5600
18     O18     6.3560   -1.0206   -1.9763 O.2      1 ZINC000006818428   -0.4500
19     C19     7.4981   -2.0078   -3.7596 C.ar     1 ZINC000006818428   -0.1300
20     C20     7.4052   -2.6885   -4.9746 C.ar     1 ZINC000006818428   -0.0800
21     C21     8.5531   -3.0500   -5.6494 C.ar     1 ZINC000006818428   -0.1100
22     C22     9.7947   -2.7395   -5.1248 C.ar     1 ZINC000006818428   -0.0700
23     C23     9.8947   -2.0647   -3.9195 C.ar     1 ZINC000006818428   -0.0400
24     Cl24   11.4575   -1.6800   -3.2689 Cl       1 ZINC000006818428   -0.0500
25     C25     8.7537   -1.6919   -3.2375 C.ar     1 ZINC000006818428   -0.0400
26     S26     2.2494   -1.8792   -3.3619 S.3      1 ZINC000006818428    0.1900
27     H27     1.0048    1.8381    0.0023 H        1 ZINC000006818428    0.0700
28     H28    -0.5450    1.8219   -0.8730 H        1 ZINC000006818428    0.0900
29     H29    -0.5280    1.8123    0.9069 H        1 ZINC000006818428    0.0900
30     H30     0.4703   -1.7247    1.1061 H        1 ZINC000006818428    0.1200
31     H31     0.6131   -0.1919    1.9996 H        1 ZINC000006818428    0.1100
32     H32    -1.9805   -2.7906    0.8750 H        1 ZINC000006818428    0.1600
33     H33    -4.2993   -2.3144    2.1758 H        1 ZINC000006818428    0.1500
34     H34    -4.0120   -0.0430    3.4504 H        1 ZINC000006818428    0.2000
35     H35     4.9946   -2.4007   -4.3807 H        1 ZINC000006818428    0.4300
36     H36     6.4366   -2.9321   -5.3856 H        1 ZINC000006818428    0.1300
37     H37     8.4820   -3.5771   -6.5894 H        1 ZINC000006818428    0.1500
38     H38    10.6900   -3.0249   -5.6571 H        1 ZINC000006818428    0.1400
39     H39     8.8324   -1.1653   -2.2979 H        1 ZINC000006818428    0.1500
@<TRIPOS>BOND
1     1     2     1
2     1     27    1
3     1     28    1
4     1     29    1
5     2     3     1
6     2     9     am
7     3     4     1
8     3     30    1
9     3     31    1
10    4     8     1
11    4     5     2
12    5     6     1
13    5     32    1
14    6     7     2
15    6     33    1
16    7     8     1
17    7     34    1
18    9     10    2
19    9     11    2
20    9     12    1
21    12    26    1
22    12    13    2
23    13    14    1
24    14    15    2
25    15    16    1
26    15    26    1
27    16    17    am
28    16    35    1
29    17    18    2
30    17    19    1
31    19    25    ar
32    19    20    ar
33    20    21    ar
34    20    36    1
35    21    22    ar
36    21    37    1
37    22    23    ar
38    22    38    1
39    23    24    1
40    23    25    ar
41    25    39    1
@<TRIPOS>SUBSTRUCTURE
1   ZINC000006818428 1     RESIDUE    1   A     ZIN   1
