@<TRIPOS>MOLECULE
ZINC000001541868
  43   45    0    0    0
SMALL
USER_CHARGES
NO_NAME
@<TRIPOS>ATOM
    1 O1       -0.0056     1.2080    -1.9534 O.3    1 <0>      -0.5700
    2 C2        0.0119    -0.1865    -1.6414 C.3    1 <0>       0.0800
    3 C3       -1.4241    -0.7039    -1.5375 C.3    1 <0>      -0.1300
    4 C4       -1.4054    -2.1969    -1.2035 C.3    1 <0>       0.1300
    5 N5       -2.7804    -2.6924    -1.1040 N.pl3  1 <0>      -0.7200
    6 C6       -3.0177    -4.0297    -0.8069 C.ar   1 <0>       0.4000
    7 C7       -1.9451    -4.8887    -0.6002 C.ar   1 <0>      -0.1900
    8 C8       -2.1997    -6.2272    -0.3031 C.ar   1 <0>       0.0200
    9 C9       -1.0863    -7.1815    -0.0740 C.ar   1 <0>       0.2600
   10 C10      -1.3499    -8.5215     0.2174 C.ar   1 <0>      -0.2600
   11 C11      -0.2789    -9.3748     0.4230 C.ar   1 <0>       0.1900
   12 N12       0.9527    -8.8992     0.3381 N.ar   1 <0>      -0.5500
   13 C13       1.1730    -7.6221     0.0599 C.ar   1 <0>       0.5600
   14 N14       2.4781    -7.1643    -0.0204 N.pl3  1 <0>      -0.6400
   15 C15       3.5423    -8.0660     0.0755 C.ar   1 <0>       0.1800
   16 C16       3.4551    -9.3124    -0.5309 C.ar   1 <0>      -0.1100
   17 C17       4.5079   -10.2014    -0.4347 C.ar   1 <0>      -0.0900
   18 C18       5.6483    -9.8521     0.2644 C.ar   1 <0>      -0.1300
   19 C19       5.7390    -8.6107     0.8701 C.ar   1 <0>      -0.0100
   20 Cl20      7.1732    -8.1760     1.7465 Cl     1 <0>      -0.0600
   21 C21       4.6913    -7.7148     0.7725 C.ar   1 <0>      -0.1400
   22 N22       0.1784    -6.7743    -0.1485 N.ar   1 <0>      -0.5500
   23 C23      -3.5321    -6.6470    -0.2261 C.ar   1 <0>      -0.2100
   24 C24      -4.5395    -5.7311    -0.4448 C.ar   1 <0>       0.1500
   25 N25      -4.2634    -4.4701    -0.7186 N.ar   1 <0>      -0.5300
   26 H26       0.8729     1.6039    -2.0347 H      1 <0>       0.3800
   27 H27       0.5373    -0.7281    -2.4280 H      1 <0>       0.0500
   28 H28       0.5231    -0.3398    -0.6910 H      1 <0>       0.0500
   29 H29      -1.9495    -0.1622    -0.7509 H      1 <0>       0.0800
   30 H30      -1.9353    -0.5506    -2.4879 H      1 <0>       0.0800
   31 H31      -0.8800    -2.7386    -1.9901 H      1 <0>       0.0700
   32 H32      -0.8942    -2.3502    -0.2531 H      1 <0>       0.0700
   33 H33      -3.5254    -2.0874    -1.2453 H      1 <0>       0.4100
   34 H34      -0.9303    -4.5256    -0.6689 H      1 <0>       0.1400
   35 H35      -2.3653    -8.8838     0.2812 H      1 <0>       0.1500
   36 H36      -0.4472   -10.4170     0.6505 H      1 <0>       0.1800
   37 H37       2.6535    -6.2183    -0.1431 H      1 <0>       0.4300
   38 H38       2.5645    -9.5865    -1.0770 H      1 <0>       0.1300
   39 H39       4.4400   -11.1708    -0.9059 H      1 <0>       0.1400
   40 H40       6.4698   -10.5492     0.3383 H      1 <0>       0.1400
   41 H41       4.7623    -6.7461     1.2449 H      1 <0>       0.1400
   42 H42      -3.7687    -7.6760     0.0014 H      1 <0>       0.1400
   43 H43      -5.5699    -6.0496    -0.3870 H      1 <0>       0.1600
@<TRIPOS>BOND
   1    1    2 1
   2    1   26 1
   3    2    3 1
   4    2   27 1
   5    2   28 1
   6    3    4 1
   7    3   29 1
   8    3   30 1
   9    4    5 1
  10    4   31 1
  11    4   32 1
  12    5    6 1
  13    5   33 1
  14    6   25 ar
  15    6    7 ar
  16    7    8 ar
  17    7   34 1
  18    8    9 1
  19    8   23 ar
  20    9   22 ar
  21    9   10 ar
  22   10   11 ar
  23   10   35 1
  24   11   12 ar
  25   11   36 1
  26   12   13 ar
  27   13   14 1
  28   13   22 ar
  29   14   15 1
  30   14   37 1
  31   15   21 ar
  32   15   16 ar
  33   16   17 ar
  34   16   38 1
  35   17   18 ar
  36   17   39 1
  37   18   19 ar
  38   18   40 1
  39   19   20 1
  40   19   21 ar
  41   21   41 1
  42   23   24 ar
  43   23   42 1
  44   24   25 ar
  45   24   43 1
