@<TRIPOS>MOLECULE
ZINC000016052857
43    45    1     0     0
SMALL
USER_CHARGES
@<TRIPOS>ATOM
1      O1      0.0021   -0.0041    0.0020 O.2      1 ZINC000016052857   -0.5300
2      C2     -0.0144    1.2117    0.0087 C.2      1 ZINC000016052857    0.6200
3      N3      1.1435    1.9014    0.0014 N.am     1 ZINC000016052857   -0.7200
4      C4      2.4220    1.1863   -0.0147 C.3      1 ZINC000016052857    0.1400
5      C5      2.7986    0.8429   -1.4588 C.3      1 ZINC000016052857   -0.1600
6      C6      4.1714    0.1673   -1.4753 C.3      1 ZINC000016052857    0.0000
7      N7      5.1751    1.0766   -0.9093 N.4      1 ZINC000016052857   -0.5100
8      H8      6.0871    0.6494   -0.9706 H        1 ZINC000016052857    0.4300
9      H9      5.1745    1.9418   -1.4285 H        1 ZINC000016052857    0.4300
10     C10     4.8596    1.3533    0.4973 C.3      1 ZINC000016052857    0.0000
11     C11     3.5133    2.0746    0.5896 C.3      1 ZINC000016052857   -0.1600
12     C12    -1.3017    1.9318    0.0187 C.2      1 ZINC000016052857   -0.0500
13     N13    -1.4682    3.2403    0.0208 N.2      1 ZINC000016052857   -0.2400
14     N14    -2.7196    3.5295    0.0295 N.pl3    1 ZINC000016052857   -0.3600
15     C15    -3.4637    2.3937    0.0337 C.2      1 ZINC000016052857   -0.0200
16     C16    -2.5949    1.3478    0.0217 C.2      1 ZINC000016052857    0.0900
17     N17    -2.9102   -0.0191    0.0201 N.am     1 ZINC000016052857   -0.6200
18     C18    -4.1990   -0.4134    0.0319 C.2      1 ZINC000016052857    0.5700
19     O19    -5.0883    0.4157    0.0438 O.2      1 ZINC000016052857   -0.5000
20     C20    -4.5309   -1.8523    0.0302 C.ar     1 ZINC000016052857   -0.1200
21     C21    -4.6821   -2.5395    1.2376 C.ar     1 ZINC000016052857    0.0000
22     Cl22   -4.4808   -1.7038    2.7458 Cl       1 ZINC000016052857   -0.0400
23     C23    -4.9925   -3.8851    1.2279 C.ar     1 ZINC000016052857   -0.1000
24     C24    -5.1533   -4.5528    0.0271 C.ar     1 ZINC000016052857   -0.0700
25     C25    -5.0053   -3.8794   -1.1721 C.ar     1 ZINC000016052857   -0.1000
26     C26    -4.7011   -2.5324   -1.1788 C.ar     1 ZINC000016052857    0.0000
27     Cl27   -4.5163   -1.6893   -2.6850 Cl       1 ZINC000016052857   -0.0400
28     H28     1.1303    2.8713    0.0067 H        1 ZINC000016052857    0.4100
29     H29     2.3341    0.2694    0.5681 H        1 ZINC000016052857    0.1100
30     H30     2.0545    0.1655   -1.8778 H        1 ZINC000016052857    0.1200
31     H31     2.8353    1.7564   -2.0524 H        1 ZINC000016052857    0.0900
32     H32     4.1335   -0.7461   -0.8817 H        1 ZINC000016052857    0.1300
33     H33     4.4426   -0.0787   -2.5020 H        1 ZINC000016052857    0.1400
34     H34     4.8070    0.4146    1.0488 H        1 ZINC000016052857    0.1400
35     H35     5.6388    1.9830    0.9269 H        1 ZINC000016052857    0.1400
36     H36     3.5648    3.0136    0.0386 H        1 ZINC000016052857    0.1000
37     H37     3.2800    2.2775    1.6349 H        1 ZINC000016052857    0.1200
38     H38    -3.0811    4.4297    0.0332 H        1 ZINC000016052857    0.4600
39     H39    -4.5419    2.3326    0.0410 H        1 ZINC000016052857    0.2100
40     H40    -2.2008   -0.6805    0.0106 H        1 ZINC000016052857    0.4300
41     H41    -5.1097   -4.4176    2.1602 H        1 ZINC000016052857    0.1500
42     H42    -5.3954   -5.6053    0.0259 H        1 ZINC000016052857    0.1500
43     H43    -5.1324   -4.4075   -2.1056 H        1 ZINC000016052857    0.1500
@<TRIPOS>BOND
1     1     2     2
2     2     3     am
3     2     12    1
4     3     4     1
5     3     28    1
6     4     11    1
7     4     5     1
8     4     29    1
9     5     6     1
10    5     30    1
11    5     31    1
12    6     7     1
13    6     32    1
14    6     33    1
15    7     8     1
16    7     9     1
17    7     10    1
18    10    11    1
19    10    34    1
20    10    35    1
21    11    36    1
22    11    37    1
23    12    16    1
24    12    13    2
25    13    14    1
26    14    15    1
27    14    38    1
28    15    16    2
29    15    39    1
30    16    17    1
31    17    18    am
32    17    40    1
33    18    19    2
34    18    20    1
35    20    26    ar
36    20    21    ar
37    21    22    1
38    21    23    ar
39    23    24    ar
40    23    41    1
41    24    25    ar
42    24    42    1
43    25    26    ar
44    25    43    1
45    26    27    1
@<TRIPOS>SUBSTRUCTURE
1   ZINC000016052857 1     RESIDUE    1   A     ZIN   1
