@<TRIPOS>MOLECULE
ZINC000005828633
  20   19    0    0    0
SMALL
USER_CHARGES
NO_NAME
@<TRIPOS>ATOM
    1 N1       -0.0116     1.0048     0.0076 N.4    1 <0>      -0.6400
    2 H2        0.0021    -0.0041     0.0020 H      1 <0>       0.4400
    3 H3        0.9350     1.3541     0.0004 H      1 <0>       0.4400
    4 H4       -0.4996     1.3391    -0.8099 H      1 <0>       0.4500
    5 C5       -0.6992     1.4786     1.2162 C.3    1 <0>      -0.0100
    6 C6        0.0408     0.9717     2.4557 C.3    1 <0>      -0.1500
    7 C7       -0.6753     1.4652     3.7145 C.3    1 <0>      -0.1500
    8 C8        0.0647     0.9583     4.9540 C.3    1 <0>      -0.0100
    9 N9       -0.6229     1.4321     6.1627 N.4    1 <0>      -0.6400
   10 H10      -0.1349     1.0978     6.9801 H      1 <0>       0.4500
   11 H11      -0.6366     2.4410     6.1682 H      1 <0>       0.4400
   12 H12      -1.5695     1.0828     6.1698 H      1 <0>       0.4400
   13 H13      -0.7140     2.5685     1.2222 H      1 <0>       0.1400
   14 H14      -1.7218     1.1013     1.2239 H      1 <0>       0.1400
   15 H15       0.0556    -0.1181     2.4497 H      1 <0>       0.1000
   16 H16       1.0634     1.3490     2.4480 H      1 <0>       0.1000
   17 H17      -0.6901     2.5550     3.7205 H      1 <0>       0.1000
   18 H18      -1.6979     1.0879     3.7222 H      1 <0>       0.1000
   19 H19       0.0794    -0.1316     4.9480 H      1 <0>       0.1400
   20 H20       1.0873     1.3356     4.9463 H      1 <0>       0.1400
@<TRIPOS>BOND
   1    1    2 1
   2    1    3 1
   3    1    4 1
   4    1    5 1
   5    5    6 1
   6    5   13 1
   7    5   14 1
   8    6    7 1
   9    6   15 1
  10    6   16 1
  11    7    8 1
  12    7   17 1
  13    7   18 1
  14    8    9 1
  15    8   19 1
  16    8   20 1
  17    9   10 1
  18    9   11 1
  19    9   12 1
