@<TRIPOS>MOLECULE
ZINC000004175630
  64   68    0    0    0
SMALL
USER_CHARGES
NO_NAME
@<TRIPOS>ATOM
    1 O1        0.8183     1.6630    -0.4676 O.2    1 <0>      -0.5600
    2 C2        0.8576     2.7758    -0.9583 C.2    1 <0>       0.6900
    3 N3       -0.1939     3.6082    -1.0775 N.am   1 <0>      -0.6400
    4 C4        0.2429     4.7827    -1.6855 C.ar   1 <0>       0.0900
    5 C5       -0.3934     5.9594    -2.0491 C.ar   1 <0>      -0.1000
    6 C6        0.3265     6.9723    -2.6525 C.ar   1 <0>      -0.1000
    7 C7        1.6801     6.8172    -2.8959 C.ar   1 <0>      -0.1000
    8 C8        2.3228     5.6480    -2.5375 C.ar   1 <0>      -0.1000
    9 C9        1.6089     4.6263    -1.9307 C.ar   1 <0>       0.0800
   10 N10       1.9604     3.3637    -1.4592 N.am   1 <0>      -0.5400
   11 C11       3.3010     2.7746    -1.5037 C.3    1 <0>       0.1600
   12 C12       3.7659     2.4516    -0.0807 C.3    1 <0>      -0.1700
   13 C13       5.1318     1.7644    -0.1399 C.3    1 <0>       0.0000
   14 N14       5.0256     0.5226    -0.9153 N.4    1 <0>      -0.3900
   15 H15       4.3232    -0.0720    -0.5016 H      1 <0>       0.4300
   16 C16       6.3203    -0.1715    -0.9052 C.3    1 <0>      -0.0100
   17 C17       6.2474    -1.4002    -1.8140 C.3    1 <0>      -0.1500
   18 C18       7.5958    -2.1230    -1.8034 C.3    1 <0>      -0.1100
   19 C19       7.5229    -3.3517    -2.7122 C.3    1 <0>       0.0000
   20 C20       8.8835    -3.9938    -2.7990 C.ar   1 <0>      -0.1000
   21 C21       9.4454    -4.2574    -4.0343 C.ar   1 <0>      -0.0800
   22 C22      10.6930    -4.8462    -4.1151 C.ar   1 <0>      -0.1500
   23 C23      11.3805    -5.1718    -2.9581 C.ar   1 <0>       0.1100
   24 F24      12.6005    -5.7470    -3.0359 F      1 <0>      -0.1300
   25 C25      10.8170    -4.9069    -1.7215 C.ar   1 <0>      -0.1500
   26 C26       9.5713    -4.3136    -1.6432 C.ar   1 <0>      -0.0900
   27 C27       6.5367    -4.3392    -2.1436 C.ar   1 <0>      -0.1000
   28 C28       6.6426    -4.7395    -0.8246 C.ar   1 <0>      -0.0900
   29 C29       5.7388    -5.6451    -0.3021 C.ar   1 <0>      -0.1500
   30 C30       4.7267    -6.1511    -1.1001 C.ar   1 <0>       0.1000
   31 F31       3.8423    -7.0361    -0.5902 F      1 <0>      -0.1300
   32 C32       4.6214    -5.7491    -2.4209 C.ar   1 <0>      -0.1500
   33 C33       5.5235    -4.8398    -2.9398 C.ar   1 <0>      -0.0800
   34 C34       4.6499     0.8308    -2.3003 C.3    1 <0>      -0.0100
   35 C35       3.2654     1.4821    -2.3243 C.3    1 <0>      -0.1700
   36 H36      -1.1011     3.4215    -0.7895 H      1 <0>       0.4400
   37 H37      -1.4497     6.0838    -1.8614 H      1 <0>       0.1400
   38 H38      -0.1691     7.8891    -2.9358 H      1 <0>       0.1400
   39 H39       2.2361     7.6134    -3.3683 H      1 <0>       0.1400
   40 H40       3.3790     5.5303    -2.7297 H      1 <0>       0.1300
   41 H41       3.9938     3.4793    -1.9635 H      1 <0>       0.1100
   42 H42       3.8472     3.3742     0.4939 H      1 <0>       0.1200
   43 H43       3.0447     1.7876     0.3959 H      1 <0>       0.1100
   44 H44       5.8522     2.4292    -0.6164 H      1 <0>       0.1300
   45 H45       5.4658     1.5332     0.8716 H      1 <0>       0.1400
   46 H46       7.0967     0.5026    -1.2671 H      1 <0>       0.1300
   47 H47       6.5565    -0.4851     0.1116 H      1 <0>       0.1300
   48 H48       5.4710    -2.0742    -1.4521 H      1 <0>       0.0900
   49 H49       6.0112    -1.0865    -2.8308 H      1 <0>       0.0900
   50 H50       8.3722    -1.4490    -2.1653 H      1 <0>       0.0800
   51 H51       7.8320    -2.4367    -0.7866 H      1 <0>       0.0800
   52 H52       7.2001    -3.0484    -3.7082 H      1 <0>       0.0900
   53 H53       8.9089    -4.0034    -4.9365 H      1 <0>       0.1300
   54 H54      11.1315    -5.0526    -5.0802 H      1 <0>       0.1400
   55 H55      11.3522    -5.1607    -0.8184 H      1 <0>       0.1400
   56 H56       9.1316    -4.1066    -0.6786 H      1 <0>       0.1300
   57 H57       7.4321    -4.3447    -0.2024 H      1 <0>       0.1300
   58 H58       5.8221    -5.9582     0.7281 H      1 <0>       0.1400
   59 H59       3.8326    -6.1434    -3.0443 H      1 <0>       0.1400
   60 H60       5.4413    -4.5258    -3.9699 H      1 <0>       0.1300
   61 H61       5.3805     1.5156    -2.7307 H      1 <0>       0.1300
   62 H62       4.6281    -0.0896    -2.8838 H      1 <0>       0.1400
   63 H63       2.5338     0.7980    -1.8942 H      1 <0>       0.1100
   64 H64       2.9890     1.7118    -3.3533 H      1 <0>       0.1200
@<TRIPOS>BOND
   1    1    2 2
   2    2   10 am
   3    2    3 am
   4    3    4 1
   5    3   36 1
   6    4    9 ar
   7    4    5 ar
   8    5    6 ar
   9    5   37 1
  10    6    7 ar
  11    6   38 1
  12    7    8 ar
  13    7   39 1
  14    8    9 ar
  15    8   40 1
  16    9   10 1
  17   10   11 1
  18   11   35 1
  19   11   12 1
  20   11   41 1
  21   12   13 1
  22   12   42 1
  23   12   43 1
  24   13   14 1
  25   13   44 1
  26   13   45 1
  27   14   15 1
  28   14   16 1
  29   14   34 1
  30   16   17 1
  31   16   46 1
  32   16   47 1
  33   17   18 1
  34   17   48 1
  35   17   49 1
  36   18   19 1
  37   18   50 1
  38   18   51 1
  39   19   20 1
  40   19   27 1
  41   19   52 1
  42   20   26 ar
  43   20   21 ar
  44   21   22 ar
  45   21   53 1
  46   22   23 ar
  47   22   54 1
  48   23   24 1
  49   23   25 ar
  50   25   26 ar
  51   25   55 1
  52   26   56 1
  53   27   33 ar
  54   27   28 ar
  55   28   29 ar
  56   28   57 1
  57   29   30 ar
  58   29   58 1
  59   30   31 1
  60   30   32 ar
  61   32   33 ar
  62   32   59 1
  63   33   60 1
  64   34   35 1
  65   34   61 1
  66   34   62 1
  67   35   63 1
  68   35   64 1
