@<TRIPOS>MOLECULE
ZINC000003812168
  64   69    0    0    0
SMALL
USER_CHARGES
NO_NAME
@<TRIPOS>ATOM
    1 C1       -2.1172     1.5701    -1.0470 C.3    1 <0>      -0.0500
    2 N2       -1.7707     0.1622    -1.2828 N.4    1 <0>      -0.3900
    3 H3       -2.5581    -0.3130    -1.6979 H      1 <0>       0.4200
    4 C4       -0.6189     0.0870    -2.1914 C.3    1 <0>      -0.0600
    5 C5       -1.4297    -0.4787    -0.0058 C.3    1 <0>      -0.0400
    6 C6       -1.2131    -1.9788    -0.2290 C.3    1 <0>       0.0600
    7 H7       -0.4801    -2.1311    -1.0193 H      1 <0>       0.0900
    8 C8       -2.5434    -2.6282    -0.6158 C.3    1 <0>      -0.1700
    9 C9       -2.5820    -2.8503    -2.1269 C.3    1 <0>       0.1000
   10 N10      -2.1439    -4.2084    -2.4496 N.pl3  1 <0>      -0.4800
   11 C11      -0.9399    -4.7602    -2.1302 C.2    1 <0>       0.0600
   12 C12      -0.8881    -6.0546    -2.5309 C.2    1 <0>      -0.0900
   13 C13      -2.1968    -6.3281    -3.1864 C.ar   1 <0>      -0.0900
   14 C14      -2.7720    -7.4579    -3.7612 C.ar   1 <0>      -0.0500
   15 C15      -4.0307    -7.3733    -4.3199 C.ar   1 <0>      -0.1400
   16 C16      -4.7242    -6.1724    -4.3120 C.ar   1 <0>      -0.0800
   17 C17      -4.1757    -5.0543    -3.7221 C.ar   1 <0>      -0.1400
   18 C18      -2.9133    -5.1236    -3.1402 C.ar   1 <0>       0.1000
   19 C19       0.1645    -7.0749    -2.3848 C.2    1 <0>      -0.0700
   20 C20       1.1462    -7.2853    -1.4213 C.2    1 <0>      -0.0200
   21 C21       1.8602    -8.5123    -1.8474 C.2    1 <0>       0.5600
   22 O22       2.7866    -9.0664    -1.2980 O.2    1 <0>      -0.4500
   23 N23       1.3245    -8.9704    -2.9883 N.am   1 <0>      -0.6900
   24 C24       0.3423    -8.1619    -3.3870 C.2    1 <0>       0.5500
   25 O25      -0.2818    -8.2819    -4.4225 O.2    1 <0>      -0.4500
   26 C26       1.4725    -6.5053    -0.2124 C.2    1 <0>      -0.1200
   27 C27       0.7680    -5.4480     0.2917 C.2    1 <0>       0.0900
   28 N28       1.4191    -4.9147     1.3566 N.pl3  1 <0>      -0.4800
   29 C29       1.0312    -3.7176     2.1091 C.3    1 <0>       0.1100
   30 C30       0.6685    -2.6064     1.1214 C.3    1 <0>       0.0300
   31 O31      -0.7540    -2.5745     0.9867 O.3    1 <0>      -0.3500
   32 C32       2.5376    -5.6685     1.6495 C.ar   1 <0>       0.0900
   33 C33       3.5111    -5.5276     2.6340 C.ar   1 <0>      -0.1400
   34 C34       4.5272    -6.4523     2.7303 C.ar   1 <0>      -0.0900
   35 C35       4.5787    -7.5117     1.8398 C.ar   1 <0>      -0.1400
   36 C36       3.6343    -7.6432     0.8419 C.ar   1 <0>      -0.0700
   37 C37       2.6057    -6.7176     0.7159 C.ar   1 <0>      -0.0800
   38 H38      -2.3703     2.0457    -1.9946 H      1 <0>       0.1300
   39 H39      -2.9719     1.6260    -0.3728 H      1 <0>       0.1300
   40 H40      -1.2666     2.0834    -0.5986 H      1 <0>       0.1300
   41 H41       0.2049     0.6723    -1.7830 H      1 <0>       0.1300
   42 H42      -0.3080    -0.9522    -2.2987 H      1 <0>       0.1200
   43 H43      -0.8989     0.4850    -3.1668 H      1 <0>       0.1300
   44 H44      -0.5167    -0.0349     0.3911 H      1 <0>       0.1400
   45 H45      -2.2438    -0.3308     0.7038 H      1 <0>       0.1500
   46 H46      -2.6459    -3.5845    -0.1016 H      1 <0>       0.1200
   47 H47      -3.3649    -1.9705    -0.3249 H      1 <0>       0.1000
   48 H48      -3.6011    -2.7037    -2.4868 H      1 <0>       0.1100
   49 H49      -1.9186    -2.1343    -2.6150 H      1 <0>       0.0700
   50 H50      -0.1331    -4.2288    -1.6484 H      1 <0>       0.1600
   51 H51      -2.2459    -8.3989    -3.7691 H      1 <0>       0.1300
   52 H52      -4.4840    -8.2506    -4.7574 H      1 <0>       0.1300
   53 H53      -5.6985    -6.1131    -4.7729 H      1 <0>       0.1300
   54 H54      -4.7268    -4.1250    -3.7146 H      1 <0>       0.1200
   55 H55       1.6202    -9.7679    -3.4526 H      1 <0>       0.4300
   56 H56      -0.1805    -5.1036    -0.0909 H      1 <0>       0.1800
   57 H57       0.1698    -3.9475     2.7350 H      1 <0>       0.1000
   58 H58       1.8640    -3.3922     2.7307 H      1 <0>       0.1200
   59 H59       1.0311    -1.6493     1.4926 H      1 <0>       0.0900
   60 H60       1.1236    -2.8257     0.1528 H      1 <0>       0.0700
   61 H61       3.4712    -4.6928     3.3187 H      1 <0>       0.1200
   62 H62       5.2769    -6.3494     3.4997 H      1 <0>       0.1300
   63 H63       5.3632    -8.2493     1.9325 H      1 <0>       0.1300
   64 H64       3.7241    -8.4868     0.1788 H      1 <0>       0.1500
@<TRIPOS>BOND
   1    1    2 1
   2    1   38 1
   3    1   39 1
   4    1   40 1
   5    2    3 1
   6    2    4 1
   7    2    5 1
   8    4   41 1
   9    4   42 1
  10    4   43 1
  11    5    6 1
  12    5   44 1
  13    5   45 1
  14    6    7 1
  15    6   31 1
  16    6    8 1
  17    8    9 1
  18    8   46 1
  19    8   47 1
  20    9   10 1
  21    9   48 1
  22    9   49 1
  23   10   18 1
  24   10   11 1
  25   11   12 2
  26   11   50 1
  27   12   13 1
  28   12   19 1
  29   13   18 ar
  30   13   14 ar
  31   14   15 ar
  32   14   51 1
  33   15   16 ar
  34   15   52 1
  35   16   17 ar
  36   16   53 1
  37   17   18 ar
  38   17   54 1
  39   19   24 1
  40   19   20 2
  41   20   21 1
  42   20   26 1
  43   21   22 2
  44   21   23 am
  45   23   24 am
  46   23   55 1
  47   24   25 2
  48   26   37 1
  49   26   27 2
  50   27   28 1
  51   27   56 1
  52   28   29 1
  53   28   32 1
  54   29   30 1
  55   29   57 1
  56   29   58 1
  57   30   31 1
  58   30   59 1
  59   30   60 1
  60   32   37 ar
  61   32   33 ar
  62   33   34 ar
  63   33   61 1
  64   34   35 ar
  65   34   62 1
  66   35   36 ar
  67   35   63 1
  68   36   37 ar
  69   36   64 1
