@<TRIPOS>MOLECULE
ZINC000003818778
  33   34    0    0    0
SMALL
USER_CHARGES
NO_NAME
@<TRIPOS>ATOM
    1 C1       -0.0173     1.4248     0.0099 C.3    1 <0>       0.0300
    2 O2        0.0021    -0.0041     0.0020 O.3    1 <0>      -0.3200
    3 C3       -1.2003    -0.6375     0.0101 C.ar   1 <0>       0.1400
    4 C4       -2.3746     0.1011     0.0195 C.ar   1 <0>      -0.2100
    5 C5       -3.5956    -0.5451     0.0272 C.ar   1 <0>      -0.0600
    6 C6       -3.6478    -1.9268     0.0260 C.ar   1 <0>      -0.1600
    7 C7       -4.9811    -2.6292     0.0350 C.3    1 <0>       0.1800
    8 N8       -5.4232    -2.8552    -1.3433 N.am   1 <0>      -0.7300
    9 C9       -6.5973    -3.4725    -1.5817 C.2    1 <0>       0.7000
   10 O10      -7.2896    -3.8418    -0.6529 O.2    1 <0>      -0.5100
   11 N11      -7.0041    -3.6805    -2.8497 N.am   1 <0>      -0.6300
   12 C12      -8.2150    -4.3171    -3.0956 C.2    1 <0>       0.3200
   13 N13      -9.0286    -4.7439    -2.1812 N.2    1 <0>      -0.4700
   14 C14     -10.1385    -5.3276    -2.5941 C.2    1 <0>       0.1900
   15 C15     -10.2685    -5.3971    -3.9200 C.2    1 <0>      -0.2500
   16 N16     -11.4077    -5.9960    -4.6518 N.pl3  1 <0>       0.0700
   17 O17     -12.3383    -6.4840    -4.0358 O.2    1 <0>      -0.1400
   18 O18     -11.4143    -6.0007    -5.8698 O.2    1 <0>      -0.1600
   19 S19      -8.8516    -4.6448    -4.6481 S.3    1 <0>       0.2700
   20 C20      -2.4788    -2.6651     0.0162 C.ar   1 <0>      -0.0600
   21 C21      -1.2554    -2.0237     0.0032 C.ar   1 <0>      -0.1500
   22 H22       1.0053     1.8021     0.0021 H      1 <0>       0.1000
   23 H23      -0.5445     1.7859    -0.8732 H      1 <0>       0.0600
   24 H24      -0.5275     1.7763     0.9067 H      1 <0>       0.0600
   25 H25      -2.3343     1.1803     0.0211 H      1 <0>       0.1300
   26 H26      -4.5101     0.0294     0.0345 H      1 <0>       0.1300
   27 H27      -4.8840    -3.5865     0.5470 H      1 <0>       0.0800
   28 H28      -5.7136    -2.0117     0.5548 H      1 <0>       0.0800
   29 H29      -4.8709    -2.5606    -2.0843 H      1 <0>       0.4000
   30 H30      -6.4518    -3.3859    -3.5907 H      1 <0>       0.4300
   31 H31     -10.8809    -5.7175    -1.9135 H      1 <0>       0.2100
   32 H32      -2.5223    -3.7443     0.0150 H      1 <0>       0.1300
   33 H33      -0.3426    -2.6008    -0.0045 H      1 <0>       0.1300
@<TRIPOS>BOND
   1    1    2 1
   2    1   22 1
   3    1   23 1
   4    1   24 1
   5    2    3 1
   6    3   21 ar
   7    3    4 ar
   8    4    5 ar
   9    4   25 1
  10    5    6 ar
  11    5   26 1
  12    6    7 1
  13    6   20 ar
  14    7    8 1
  15    7   27 1
  16    7   28 1
  17    8    9 am
  18    8   29 1
  19    9   10 2
  20    9   11 am
  21   11   12 1
  22   11   30 1
  23   12   19 1
  24   12   13 2
  25   13   14 1
  26   14   15 2
  27   14   31 1
  28   15   16 1
  29   15   19 1
  30   16   17 2
  31   16   18 2
  32   20   21 ar
  33   20   32 1
  34   21   33 1
