@<TRIPOS>MOLECULE
ZINC000028863086
40    42    1     0     0
SMALL
USER_CHARGES
@<TRIPOS>ATOM
1      C1     -0.0166    1.3764    0.0096 C.ar     1 ZINC000028863086   -0.2400
2      C2      1.1844    2.0729    0.0019 C.ar     1 ZINC000028863086   -0.0300
3      C3      2.3653    1.3524   -0.0133 C.ar     1 ZINC000028863086   -0.2400
4      C4      2.3097   -0.0374   -0.0202 C.ar     1 ZINC000028863086    0.4000
5      N5      3.4886   -0.7739   -0.0349 N.pl3    1 ZINC000028863086   -0.7200
6      C6      4.7820   -0.0860   -0.0431 C.3      1 ZINC000028863086    0.1700
7      C7      5.8926   -1.1045   -0.0587 C.ar     1 ZINC000028863086   -0.1000
8      C8      6.4090   -1.5822    1.1312 C.ar     1 ZINC000028863086   -0.1000
9      C9      7.4278   -2.5165    1.1168 C.ar     1 ZINC000028863086   -0.1000
10     C10     7.9297   -2.9734   -0.0874 C.ar     1 ZINC000028863086   -0.1000
11     C11     9.0406   -3.9915   -0.1030 C.3      1 ZINC000028863086    0.1700
12     N12     8.4674   -5.3397   -0.1108 N.pl3    1 ZINC000028863086   -0.7200
13     C13     9.3032   -6.4503   -0.1254 C.ar     1 ZINC000028863086    0.4000
14     C14    10.6830   -6.2745   -0.1270 C.ar     1 ZINC000028863086   -0.2400
15     C15    11.5032   -7.3885   -0.1416 C.ar     1 ZINC000028863086   -0.0300
16     C16    10.9134   -8.6454   -0.1543 C.ar     1 ZINC000028863086   -0.2400
17     C17     9.5364   -8.7463   -0.1520 C.ar     1 ZINC000028863086    0.1500
18     N18     8.7788   -7.6662   -0.1324 N.ar     1 ZINC000028863086   -0.5500
19     C19     7.4123   -2.4966   -1.2773 C.ar     1 ZINC000028863086   -0.1000
20     C20     6.3910   -1.5652   -1.2630 C.ar     1 ZINC000028863086   -0.1000
21     N21     1.1438   -0.6653   -0.0124 N.ar     1 ZINC000028863086   -0.5500
22     C22     0.0021   -0.0041    0.0020 C.ar     1 ZINC000028863086    0.1500
23     H23    -0.9560    1.9091    0.0259 H        1 ZINC000028863086    0.1300
24     H24     1.1965    3.1528    0.0072 H        1 ZINC000028863086    0.1300
25     H25     3.3174    1.8621   -0.0200 H        1 ZINC000028863086    0.1300
26     H26     3.4548   -1.7433   -0.0398 H        1 ZINC000028863086    0.4100
27     H27     4.8533    0.5431   -0.9304 H        1 ZINC000028863086    0.0700
28     H28     4.8696    0.5335    0.8494 H        1 ZINC000028863086    0.0700
29     H29     6.0169   -1.2253    2.0720 H        1 ZINC000028863086    0.1300
30     H30     7.8318   -2.8892    2.0465 H        1 ZINC000028863086    0.1300
31     H31     9.6500   -3.8507   -0.9957 H        1 ZINC000028863086    0.0700
32     H32     9.6613   -3.8657    0.7841 H        1 ZINC000028863086    0.0700
33     H33     7.5046   -5.4573   -0.1057 H        1 ZINC000028863086    0.4100
34     H34    11.1084   -5.2818   -0.1172 H        1 ZINC000028863086    0.1300
35     H35    12.5780   -7.2829   -0.1435 H        1 ZINC000028863086    0.1300
36     H36    11.5255   -9.5351   -0.1663 H        1 ZINC000028863086    0.1300
37     H37     9.0735   -9.7220   -0.1618 H        1 ZINC000028863086    0.1600
38     H38     7.8042   -2.8538   -2.2182 H        1 ZINC000028863086    0.1300
39     H39     5.9867   -1.1927   -2.1927 H        1 ZINC000028863086    0.1300
40     H40    -0.9299   -0.5498    0.0083 H        1 ZINC000028863086    0.1600
@<TRIPOS>BOND
1     1     22    ar
2     1     2     ar
3     1     23    1
4     2     3     ar
5     2     24    1
6     3     4     ar
7     3     25    1
8     4     5     1
9     4     21    ar
10    5     6     1
11    5     26    1
12    6     7     1
13    6     27    1
14    6     28    1
15    7     20    ar
16    7     8     ar
17    8     9     ar
18    8     29    1
19    9     10    ar
20    9     30    1
21    10    11    1
22    10    19    ar
23    11    12    1
24    11    31    1
25    11    32    1
26    12    13    1
27    12    33    1
28    13    18    ar
29    13    14    ar
30    14    15    ar
31    14    34    1
32    15    16    ar
33    15    35    1
34    16    17    ar
35    16    36    1
36    17    18    ar
37    17    37    1
38    19    20    ar
39    19    38    1
40    20    39    1
41    21    22    ar
42    22    40    1
@<TRIPOS>SUBSTRUCTURE
1   ZINC000028863086 1     RESIDUE    1   A     ZIN   1
