@<TRIPOS>MOLECULE
ZINC000006906035
59    62    1     0     0
SMALL
USER_CHARGES
@<TRIPOS>ATOM
1      C1     -0.0173    1.4248    0.0099 C.3      1 ZINC000006906035    0.0200
2      O2      0.0021   -0.0041    0.0020 O.3      1 ZINC000006906035   -0.3000
3      C3     -1.2011   -0.6379    0.0101 C.ar     1 ZINC000006906035    0.1400
4      C4     -2.3748    0.1005    0.0195 C.ar     1 ZINC000006906035   -0.2000
5      C5     -3.5982   -0.5428    0.0277 C.ar     1 ZINC000006906035   -0.0200
6      C6     -4.8712    0.2637    0.0379 C.3      1 ZINC000006906035    0.0600
7      N7     -5.2938    0.5266   -1.3400 N.2      1 ZINC000006906035   -0.1300
8      N8     -6.3967    0.1229   -1.7380 N.2      1 ZINC000006906035   -0.1800
9      C9     -6.7936    0.3698   -3.0323 C.ar     1 ZINC000006906035    0.5500
10     N10    -5.9925    1.0364   -3.8576 N.ar     1 ZINC000006906035   -0.5900
11     C11    -6.3764    1.2749   -5.1082 C.ar     1 ZINC000006906035    0.5700
12     N12    -5.5445    1.9665   -5.9654 N.3      1 ZINC000006906035   -0.4500
13     C13    -5.2700    1.1837   -7.1790 C.3      1 ZINC000006906035    0.0300
14     C14    -4.3950    2.0097   -8.1256 C.3      1 ZINC000006906035    0.0600
15     O15    -3.1965    2.3932   -7.4461 O.3      1 ZINC000006906035   -0.3800
16     C16    -3.4269    3.1578   -6.2596 C.3      1 ZINC000006906035    0.0600
17     C17    -4.2920    2.3433   -5.2941 C.3      1 ZINC000006906035    0.0300
18     N18    -7.5605    0.8470   -5.5330 N.ar     1 ZINC000006906035   -0.5700
19     C19    -8.3615    0.1807   -4.7082 C.ar     1 ZINC000006906035    0.5700
20     N20    -9.5912   -0.2640   -5.1498 N.3      1 ZINC000006906035   -0.4500
21     C21   -10.3981    0.8492   -5.6705 C.3      1 ZINC000006906035    0.0300
22     C22   -11.7261    0.3045   -6.2030 C.3      1 ZINC000006906035    0.0600
23     O23   -12.3960   -0.4081   -5.1595 O.3      1 ZINC000006906035   -0.3800
24     C24   -11.6388   -1.4996   -4.6297 C.3      1 ZINC000006906035    0.0600
25     C25   -10.3099   -0.9731   -4.0812 C.3      1 ZINC000006906035    0.0300
26     N26    -7.9759   -0.0629   -3.4591 N.ar     1 ZINC000006906035   -0.5600
27     C27    -3.6572   -1.9238    0.0261 C.ar     1 ZINC000006906035   -0.2200
28     C28    -2.4882   -2.6696    0.0168 C.ar     1 ZINC000006906035    0.1400
29     O29    -2.5472   -4.0282    0.0153 O.3      1 ZINC000006906035   -0.3000
30     C30    -3.8474   -4.6211    0.0237 C.3      1 ZINC000006906035    0.0200
31     C31    -1.2561   -2.0266    0.0032 C.ar     1 ZINC000006906035    0.0500
32     O32    -0.1065   -2.7549   -0.0060 O.3      1 ZINC000006906035   -0.4700
33     H33     1.0053    1.8021    0.0021 H        1 ZINC000006906035    0.1000
34     H34    -0.5445    1.7859   -0.8732 H        1 ZINC000006906035    0.0600
35     H35    -0.5275    1.7763    0.9067 H        1 ZINC000006906035    0.0600
36     H36    -2.3329    1.1797    0.0207 H        1 ZINC000006906035    0.1400
37     H37    -5.6507   -0.2943    0.5568 H        1 ZINC000006906035    0.0900
38     H38    -4.6981    1.2094    0.5515 H        1 ZINC000006906035    0.1300
39     H39    -4.7483    0.2653   -6.9096 H        1 ZINC000006906035    0.0600
40     H40    -6.2096    0.9375   -7.6737 H        1 ZINC000006906035    0.1100
41     H41    -4.1416    1.4123   -9.0014 H        1 ZINC000006906035    0.1100
42     H42    -4.9380    2.9019   -8.4375 H        1 ZINC000006906035    0.0700
43     H43    -2.4733    3.3907   -5.7858 H        1 ZINC000006906035    0.1100
44     H44    -3.9417    4.0834   -6.5172 H        1 ZINC000006906035    0.0600
45     H45    -4.5177    2.9437   -4.4128 H        1 ZINC000006906035    0.1000
46     H46    -3.7547    1.4436   -4.9945 H        1 ZINC000006906035    0.0700
47     H47   -10.5923    1.5634   -4.8702 H        1 ZINC000006906035    0.0600
48     H48    -9.8579    1.3440   -6.4776 H        1 ZINC000006906035    0.1100
49     H49   -12.3511    1.1324   -6.5377 H        1 ZINC000006906035    0.1100
50     H50   -11.5345   -0.3687   -7.0386 H        1 ZINC000006906035    0.0700
51     H51   -12.2007   -1.9764   -3.8265 H        1 ZINC000006906035    0.1100
52     H52   -11.4447   -2.2252   -5.4195 H        1 ZINC000006906035    0.0600
53     H53    -9.7053   -1.8085   -3.7282 H        1 ZINC000006906035    0.1000
54     H54   -10.5028   -0.2881   -3.2556 H        1 ZINC000006906035    0.0700
55     H55    -4.6151   -2.4227    0.0325 H        1 ZINC000006906035    0.1400
56     H56    -3.7517   -5.7069    0.0215 H        1 ZINC000006906035    0.1100
57     H57    -4.3849   -4.3056    0.9179 H        1 ZINC000006906035    0.0600
58     H58    -4.3975   -4.3031   -0.8620 H        1 ZINC000006906035    0.0600
59     H59     0.2172   -2.9677   -0.8921 H        1 ZINC000006906035    0.3800
@<TRIPOS>BOND
1     1     2     1
2     1     33    1
3     1     34    1
4     1     35    1
5     2     3     1
6     3     31    ar
7     3     4     ar
8     4     5     ar
9     4     36    1
10    5     6     1
11    5     27    ar
12    6     7     1
13    6     37    1
14    6     38    1
15    7     8     2
16    8     9     1
17    9     26    ar
18    9     10    ar
19    10    11    ar
20    11    12    1
21    11    18    ar
22    12    17    1
23    12    13    1
24    13    14    1
25    13    39    1
26    13    40    1
27    14    15    1
28    14    41    1
29    14    42    1
30    15    16    1
31    16    17    1
32    16    43    1
33    16    44    1
34    17    45    1
35    17    46    1
36    18    19    ar
37    19    20    1
38    19    26    ar
39    20    25    1
40    20    21    1
41    21    22    1
42    21    47    1
43    21    48    1
44    22    23    1
45    22    49    1
46    22    50    1
47    23    24    1
48    24    25    1
49    24    51    1
50    24    52    1
51    25    53    1
52    25    54    1
53    27    28    ar
54    27    55    1
55    28    29    1
56    28    31    ar
57    29    30    1
58    30    56    1
59    30    57    1
60    30    58    1
61    31    32    1
62    32    59    1
@<TRIPOS>SUBSTRUCTURE
1   ZINC000006906035 1     RESIDUE    1   A     ZIN   1
