@<TRIPOS>MOLECULE
ZINC000141831516
66    71    1     0     0
SMALL
USER_CHARGES
@<TRIPOS>ATOM
1      C1      0.6437    0.4869    0.3194 C.3      1 ZINC000141831516   -0.1900
2      C2     -0.2903   -0.6328   -0.1441 C.3      1 ZINC000141831516    0.0800
3      C3     -0.0482   -0.9174   -1.6278 C.3      1 ZINC000141831516   -0.1500
4      O4     -0.0309   -1.8147    0.6162 O.3      1 ZINC000141831516   -0.3000
5      C5     -0.6074   -1.8973    1.8444 C.ar     1 ZINC000141831516    0.1200
6      C6     -1.3088   -0.8144    2.3541 C.ar     1 ZINC000141831516   -0.1800
7      C7     -1.8949   -0.8944    3.6007 C.ar     1 ZINC000141831516   -0.0500
8      C8     -1.7826   -2.0650    4.3490 C.ar     1 ZINC000141831516   -0.0400
9      C9     -2.4118   -2.1535    5.6882 C.2      1 ZINC000141831516    0.1800
10     N10    -3.6250   -1.7663    6.0040 N.2      1 ZINC000141831516   -0.2200
11     N11    -3.8640   -2.0095    7.3607 N.pl3    1 ZINC000141831516   -0.3800
12     C12    -5.1108   -1.7065    8.0679 C.3      1 ZINC000141831516    0.2100
13     H13    -5.0164   -2.0010    9.1131 H        1 ZINC000141831516    0.1500
14     C14    -5.3925   -0.2050    7.9845 C.3      1 ZINC000141831516   -0.1700
15     C15    -6.2462   -2.4667    7.4324 C.2      1 ZINC000141831516    0.1400
16     C16    -6.9461   -3.3449    8.1985 C.2      1 ZINC000141831516   -0.2200
17     C17    -6.6175   -3.5381    9.6318 C.ar     1 ZINC000141831516   -0.0100
18     C18    -5.3845   -4.0729   10.0005 C.ar     1 ZINC000141831516   -0.1100
19     C19    -5.0825   -4.2506   11.3357 C.ar     1 ZINC000141831516   -0.0800
20     C20    -6.0006   -3.8997   12.3081 C.ar     1 ZINC000141831516   -0.1400
21     C21    -7.2285   -3.3674   11.9485 C.ar     1 ZINC000141831516    0.1000
22     F22    -8.1215   -3.0259   12.9030 F        1 ZINC000141831516   -0.1400
23     C23    -7.5383   -3.1801   10.6146 C.ar     1 ZINC000141831516   -0.1200
24     C24    -8.0422   -4.0997    7.5624 C.2      1 ZINC000141831516    0.4300
25     O25    -8.8588   -4.7284    8.2130 O.2      1 ZINC000141831516   -0.4300
26     C26    -8.0878   -4.0448    6.0867 C.ar     1 ZINC000141831516   -0.1900
27     C27    -8.8969   -4.9086    5.3524 C.ar     1 ZINC000141831516   -0.0700
28     C28    -8.9047   -4.8258    3.9746 C.ar     1 ZINC000141831516    0.0800
29     F29    -9.6866   -5.6588    3.2535 F        1 ZINC000141831516   -0.1300
30     C30    -8.1103   -3.8873    3.3283 C.ar     1 ZINC000141831516   -0.0900
31     C31    -7.3082   -3.0275    4.0468 C.ar     1 ZINC000141831516   -0.1000
32     C32    -7.2865   -3.0917    5.4365 C.ar     1 ZINC000141831516    0.1300
33     O33    -6.5196   -2.2420    6.1482 O.3      1 ZINC000141831516   -0.1900
34     C34    -2.7570   -2.5725    7.9224 C.ar     1 ZINC000141831516    0.3800
35     N35    -2.4434   -2.9949    9.1470 N.ar     1 ZINC000141831516   -0.5700
36     C36    -1.2596   -3.5103    9.3964 C.ar     1 ZINC000141831516    0.3900
37     N37    -0.3274   -3.6388    8.4691 N.ar     1 ZINC000141831516   -0.6000
38     C38    -0.5452   -3.2464    7.2175 C.ar     1 ZINC000141831516    0.5200
39     N39     0.4333   -3.3837    6.2520 N.pl3    1 ZINC000141831516   -0.8300
40     C40    -1.7970   -2.6944    6.9003 C.ar     1 ZINC000141831516   -0.3200
41     C41    -1.0775   -3.1531    3.8350 C.ar     1 ZINC000141831516   -0.1100
42     C42    -0.4977   -3.0690    2.5851 C.ar     1 ZINC000141831516    0.0800
43     F43     0.1853   -4.1221    2.0854 F        1 ZINC000141831516   -0.1200
44     H44     1.6794    0.1803    0.1725 H        1 ZINC000141831516    0.0700
45     H45     0.4459    1.3884   -0.2604 H        1 ZINC000141831516    0.0800
46     H46     0.4713    0.6897    1.3764 H        1 ZINC000141831516    0.0600
47     H47    -1.3259   -0.3262    0.0029 H        1 ZINC000141831516    0.0800
48     H48     0.9874   -1.2240   -1.7747 H        1 ZINC000141831516    0.0700
49     H49    -0.7136   -1.7151   -1.9580 H        1 ZINC000141831516    0.0700
50     H50    -0.2460   -0.0159   -2.2076 H        1 ZINC000141831516    0.0800
51     H51    -1.3959    0.0928    1.7746 H        1 ZINC000141831516    0.1500
52     H52    -2.4400   -0.0503    3.9965 H        1 ZINC000141831516    0.1400
53     H53    -4.5712    0.3448    8.4442 H        1 ZINC000141831516    0.0800
54     H54    -5.4868    0.0895    6.9393 H        1 ZINC000141831516    0.0800
55     H55    -6.3201    0.0204    8.5107 H        1 ZINC000141831516    0.0900
56     H56    -4.6662   -4.3483    9.2424 H        1 ZINC000141831516    0.1300
57     H57    -4.1270   -4.6651   11.6214 H        1 ZINC000141831516    0.1400
58     H58    -5.7602   -4.0412   13.3514 H        1 ZINC000141831516    0.1400
59     H59    -8.4951   -2.7649   10.3343 H        1 ZINC000141831516    0.1400
60     H60    -9.5133   -5.6378    5.8572 H        1 ZINC000141831516    0.1600
61     H61    -8.1212   -3.8310    2.2498 H        1 ZINC000141831516    0.1600
62     H62    -6.6954   -2.3034    3.5306 H        1 ZINC000141831516    0.1600
63     H63    -1.0402   -3.8418   10.4005 H        1 ZINC000141831516    0.2100
64     H64     1.2012   -3.9529    6.4172 H        1 ZINC000141831516    0.4100
65     H65     0.3524   -2.9110    5.4089 H        1 ZINC000141831516    0.4100
66     H66    -0.9887   -4.0615    4.4124 H        1 ZINC000141831516    0.1500
@<TRIPOS>BOND
1     1     2     1
2     1     44    1
3     1     45    1
4     1     46    1
5     2     3     1
6     2     4     1
7     2     47    1
8     3     48    1
9     3     49    1
10    3     50    1
11    4     5     1
12    5     42    ar
13    5     6     ar
14    6     7     ar
15    6     51    1
16    7     8     ar
17    7     52    1
18    8     9     1
19    8     41    ar
20    9     40    1
21    9     10    2
22    10    11    1
23    11    12    1
24    11    34    1
25    12    13    1
26    12    14    1
27    12    15    1
28    14    53    1
29    14    54    1
30    14    55    1
31    15    33    1
32    15    16    2
33    16    17    1
34    16    24    1
35    17    23    ar
36    17    18    ar
37    18    19    ar
38    18    56    1
39    19    20    ar
40    19    57    1
41    20    21    ar
42    20    58    1
43    21    22    1
44    21    23    ar
45    23    59    1
46    24    25    2
47    24    26    1
48    26    32    ar
49    26    27    ar
50    27    28    ar
51    27    60    1
52    28    29    1
53    28    30    ar
54    30    31    ar
55    30    61    1
56    31    32    ar
57    31    62    1
58    32    33    1
59    34    40    ar
60    34    35    ar
61    35    36    ar
62    36    37    ar
63    36    63    1
64    37    38    ar
65    38    39    1
66    38    40    ar
67    39    64    1
68    39    65    1
69    41    42    ar
70    41    66    1
71    42    43    1
@<TRIPOS>SUBSTRUCTURE
1   ZINC000141831516 1     RESIDUE    1   A     ZIN   1
