@<TRIPOS>MOLECULE
ZINC000095561016
  46   49    0    0    0
SMALL
USER_CHARGES
NO_NAME
@<TRIPOS>ATOM
    1 O1        0.0167     0.1190     0.4716 O.2    1 <0>      -0.5000
    2 C2        0.0179     1.3121     0.2533 C.2    1 <0>       0.5200
    3 C3       -1.2769     2.0687     0.2814 C.3    1 <0>      -0.1400
    4 C4       -1.5721     2.5797     1.7011 C.3    1 <0>      -0.0100
    5 H5       -2.3099     3.3811     1.6602 H      1 <0>       0.1200
    6 C6       -2.0899     1.4506     2.5543 C.ar   1 <0>      -0.0900
    7 C7       -1.3070     0.3317     2.7695 C.ar   1 <0>      -0.0900
    8 C8       -1.7820    -0.7040     3.5521 C.ar   1 <0>      -0.1200
    9 C9       -3.0396    -0.6208     4.1199 C.ar   1 <0>      -0.1100
   10 C10      -3.8220     0.4985     3.9055 C.ar   1 <0>      -0.1200
   11 C11      -3.3454     1.5361     3.1264 C.ar   1 <0>      -0.1000
   12 S12      -0.0073     3.2129     2.3914 S.3    1 <0>      -0.1200
   13 C13       0.6954     4.0666     1.0178 C.ar   1 <0>      -0.1400
   14 C14       0.7234     5.4516     0.9893 C.ar   1 <0>      -0.0500
   15 C15       1.2831     6.1029    -0.0957 C.ar   1 <0>      -0.1300
   16 C16       1.8128     5.3773    -1.1465 C.ar   1 <0>      -0.0700
   17 C17       1.7862     3.9937    -1.1240 C.ar   1 <0>      -0.1300
   18 C18       1.2254     3.3352    -0.0427 C.ar   1 <0>       0.1700
   19 N19       1.1755     1.9336    -0.0036 N.am   1 <0>      -0.5600
   20 C20       2.3879     1.1494    -0.2511 C.3    1 <0>       0.1500
   21 C21       3.0376     0.8005     1.0631 C.ar   1 <0>      -0.0400
   22 C22       2.3752     1.0523     2.2498 C.ar   1 <0>      -0.1200
   23 C23       2.9712     0.7322     3.4555 C.ar   1 <0>      -0.0600
   24 C24       4.2292     0.1600     3.4742 C.ar   1 <0>      -0.1200
   25 C25       4.8914    -0.0927     2.2871 C.ar   1 <0>      -0.0500
   26 C26       4.2938     0.2234     1.0816 C.ar   1 <0>      -0.0400
   27 N27       5.0027    -0.0472    -0.1893 N.pl3  1 <0>       0.0300
   28 O28       6.0659    -0.6414    -0.1790 O.2    1 <0>      -0.1500
   29 O29       4.5229     0.3244    -1.2453 O.2    1 <0>      -0.1700
   30 H30      -1.2126     2.9169    -0.4001 H      1 <0>       0.1000
   31 H31      -2.0847     1.4109    -0.0393 H      1 <0>       0.1200
   32 H32      -0.3245     0.2667     2.3258 H      1 <0>       0.1400
   33 H33      -1.1707    -1.5784     3.7196 H      1 <0>       0.1200
   34 H34      -3.4109    -1.4303     4.7308 H      1 <0>       0.1200
   35 H35      -4.8047     0.5634     4.3489 H      1 <0>       0.1300
   36 H36      -3.9567     2.4106     2.9589 H      1 <0>       0.1200
   37 H37       0.3102     6.0198     1.8095 H      1 <0>       0.1400
   38 H38       1.3060     7.1823    -0.1218 H      1 <0>       0.1400
   39 H39       2.2491     5.8926    -1.9894 H      1 <0>       0.1400
   40 H40       2.2010     3.4300    -1.9465 H      1 <0>       0.1400
   41 H41       2.1265     0.2338    -0.7816 H      1 <0>       0.1200
   42 H42       3.0816     1.7340    -0.8554 H      1 <0>       0.1200
   43 H43       1.3922     1.4995     2.2352 H      1 <0>       0.1700
   44 H44       2.4540     0.9297     4.3828 H      1 <0>       0.1400
   45 H45       4.6951    -0.0894     4.4161 H      1 <0>       0.1500
   46 H46       5.8745    -0.5395     2.3018 H      1 <0>       0.1500
@<TRIPOS>BOND
   1    1    2 2
   2    2   19 am
   3    2    3 1
   4    3    4 1
   5    3   30 1
   6    3   31 1
   7    4    5 1
   8    4    6 1
   9    4   12 1
  10    6   11 ar
  11    6    7 ar
  12    7    8 ar
  13    7   32 1
  14    8    9 ar
  15    8   33 1
  16    9   10 ar
  17    9   34 1
  18   10   11 ar
  19   10   35 1
  20   11   36 1
  21   12   13 1
  22   13   18 ar
  23   13   14 ar
  24   14   15 ar
  25   14   37 1
  26   15   16 ar
  27   15   38 1
  28   16   17 ar
  29   16   39 1
  30   17   18 ar
  31   17   40 1
  32   18   19 1
  33   19   20 1
  34   20   21 1
  35   20   41 1
  36   20   42 1
  37   21   26 ar
  38   21   22 ar
  39   22   23 ar
  40   22   43 1
  41   23   24 ar
  42   23   44 1
  43   24   25 ar
  44   24   45 1
  45   25   26 ar
  46   25   46 1
  47   26   27 1
  48   27   28 2
  49   27   29 2
