@<TRIPOS>MOLECULE
ZINC000003960083
  54   58    0    0    0
SMALL
NO_CHARGES
@<TRIPOS>ATOM
   1 N1            -3.4856     0.5141     1.8484 N.4     
   2 H2            -4.0827     0.6342     2.6528 H       
   3 H3            -3.2658    -0.4642     1.7356 H       
   4 H4            -3.9607     0.8493     1.0238 H       
   5 C5            -2.2444     1.2757     2.0419 C.3     
   6 C6            -1.5347     0.7751     3.2735 C.2     
   7 O7            -2.0156    -0.1273     3.9258 O.2     
   8 N8            -0.3657     1.3302     3.6500 N.am    
   9 C9             0.2466     0.9304     4.8439 C.ar    
  10 C10            0.1622    -0.3925     5.2586 C.ar    
  11 C11            0.7658    -0.7865     6.4356 C.ar    
  12 C12            1.4571     0.1399     7.2055 C.ar    
  13 N13            2.0697    -0.2602     8.4010 N.pl3   
  14 N14            2.8563    -1.4047     8.5838 N.2     
  15 C15            3.2532    -1.4419     9.8313 C.2     
  16 C16            4.1206    -2.5099    10.4462 C.3     
  17 F17            4.5353    -3.4032     9.4526 F       
  18 F18            5.2414    -1.9171    11.0376 F       
  19 F19            3.3905    -3.2007    11.4192 F       
  20 C20            2.7398    -0.3283    10.4960 C.2     
  21 C21            2.0119     0.3987     9.5957 C.2     
  22 C22            1.2889     1.6599     9.8673 C.ar    
  23 C23            0.1834     2.0124     9.0803 C.ar    
  24 C24           -0.4950     3.1706     9.3158 C.ar    
  25 C25           -0.0919     4.0202    10.3492 C.ar    
  26 C26            1.0212     3.6791    11.1523 C.ar    
  27 C27            1.7055     2.4841    10.9031 C.ar    
  28 C28            1.4273     4.5423    12.1979 C.ar    
  29 C29            0.7747     5.6939    12.4524 C.ar    
  30 C30           -0.3454     6.0915    11.6855 C.ar    
  31 C31           -1.0164     7.2915    11.9583 C.ar    
  32 C32           -2.0941     7.6517    11.2029 C.ar    
  33 C33           -2.5387     6.8442    10.1631 C.ar    
  34 C34           -1.9066     5.6686     9.8723 C.ar    
  35 C35           -0.8007     5.2729    10.6270 C.ar    
  36 C36            1.5419     1.4626     6.7906 C.ar    
  37 C37            0.9432     1.8555     5.6108 C.ar    
  38 H38           -1.5993     1.1460     1.1729 H       
  39 H39           -2.4818     2.3326     2.1636 H       
  40 H40            0.0515     2.0066     3.0938 H       
  41 H41           -0.3760    -1.1127     4.6603 H       
  42 H42            0.7002    -1.8151     6.7581 H       
  43 H43            2.8934    -0.0819    11.5363 H       
  44 H44           -0.1332     1.3602     8.2798 H       
  45 H45           -1.3450     3.4321     8.7030 H       
  46 H46            2.5572     2.2091    11.5076 H       
  47 H47            2.2783     4.2721    12.8054 H       
  48 H48            1.1142     6.3265    13.2593 H       
  49 H49           -0.6818     7.9285    12.7637 H       
  50 H50           -2.6088     8.5768    11.4164 H       
  51 H51           -3.3939     7.1494     9.5784 H       
  52 H52           -2.2609     5.0481     9.0624 H       
  53 H53            2.0798     2.1829     7.3892 H       
  54 H54            1.0091     2.8841     5.2882 H       
@<TRIPOS>BOND
   1    1    2 1
   2    1    3 1
   3    1    4 1
   4    1    5 1
   5    5    6 1
   6    5   38 1
   7    5   39 1
   8    6    7 2
   9    6    8 am
  10    8    9 1
  11    8   40 1
  12    9   37 ar
  13    9   10 ar
  14   10   11 ar
  15   10   41 1
  16   11   12 ar
  17   11   42 1
  18   12   13 1
  19   12   36 ar
  20   13   21 1
  21   13   14 1
  22   14   15 2
  23   15   16 1
  24   15   20 1
  25   16   17 1
  26   16   18 1
  27   16   19 1
  28   20   21 2
  29   20   43 1
  30   21   22 1
  31   22   27 ar
  32   22   23 ar
  33   23   24 ar
  34   23   44 1
  35   24   25 ar
  36   24   45 1
  37   25   35 ar
  38   25   26 ar
  39   26   27 ar
  40   26   28 ar
  41   27   46 1
  42   28   29 ar
  43   28   47 1
  44   29   30 ar
  45   29   48 1
  46   30   35 ar
  47   30   31 ar
  48   31   32 ar
  49   31   49 1
  50   32   33 ar
  51   32   50 1
  52   33   34 ar
  53   33   51 1
  54   34   35 ar
  55   34   52 1
  56   36   37 ar
  57   36   53 1
  58   37   54 1
