@<TRIPOS>MOLECULE
ZINC000167970769
30    32    1     0     0
SMALL
USER_CHARGES
@<TRIPOS>ATOM
1      C1      0.0304    1.5257    0.0384 C.3      1 ZINC000167970769   -0.1600
2      C2      0.0235   -0.0041    0.0142 C.3      1 ZINC000167970769    0.0600
3      O3      0.7046   -0.4724   -1.1796 O.3      1 ZINC000167970769   -0.3500
4      C4      0.7867   -1.8068   -1.3538 C.2      1 ZINC000167970769    0.5200
5      O5      0.3021   -2.5583   -0.5302 O.2      1 ZINC000167970769   -0.4800
6      C6      1.4628   -2.3536   -2.5407 C.2      1 ZINC000167970769   -0.0500
7      C7      1.6604   -3.6991   -2.6686 C.2      1 ZINC000167970769   -0.0100
8      C8      2.3124   -4.2210   -3.8130 C.2      1 ZINC000167970769    0.2900
9      N9      2.6069   -5.4587   -4.1444 N.2      1 ZINC000167970769   -0.2300
10     N10     3.2561   -5.4317   -5.3852 N.am     1 ZINC000167970769   -0.5200
11     C11     3.3363   -4.1446   -5.7761 C.2      1 ZINC000167970769    0.6500
12     O12     3.8388   -3.7388   -6.8089 O.2      1 ZINC000167970769   -0.5300
13     N13     2.7604   -3.3847   -4.8206 N.am     1 ZINC000167970769   -0.4900
14     C14     2.5793   -2.0062   -4.7322 C.ar     1 ZINC000167970769    0.1800
15     C15     3.0292   -1.1707   -5.7444 C.ar     1 ZINC000167970769   -0.1100
16     C16     2.8427    0.1949   -5.6443 C.ar     1 ZINC000167970769   -0.0500
17     Br17    3.4577    1.3296   -7.0265 Br       1 ZINC000167970769   -0.0200
18     C18     2.2080    0.7393   -4.5388 C.ar     1 ZINC000167970769   -0.1000
19     C19     1.7549   -0.0775   -3.5239 C.ar     1 ZINC000167970769   -0.0600
20     C20     1.9333   -1.4568   -3.6159 C.ar     1 ZINC000167970769   -0.0700
21     H21     1.0597    1.8843    0.0431 H        1 ZINC000167970769    0.0700
22     H22    -0.4826    1.9054   -0.8452 H        1 ZINC000167970769    0.0700
23     H23    -0.4809    1.8772    0.9346 H        1 ZINC000167970769    0.0800
24     H24     0.5365   -0.3838    0.8978 H        1 ZINC000167970769    0.0800
25     H25    -1.0058   -0.3627    0.0095 H        1 ZINC000167970769    0.0800
26     H26     1.3181   -4.3684   -1.8932 H        1 ZINC000167970769    0.1800
27     H27     3.5881   -6.2005   -5.8746 H        1 ZINC000167970769    0.4700
28     H28     3.5246   -1.5870   -6.6090 H        1 ZINC000167970769    0.1600
29     H29     2.0679    1.8081   -4.4715 H        1 ZINC000167970769    0.1500
30     H30     1.2607    0.3493   -2.6637 H        1 ZINC000167970769    0.1800
@<TRIPOS>BOND
1     1     2     1
2     1     21    1
3     1     22    1
4     1     23    1
5     2     3     1
6     2     24    1
7     2     25    1
8     3     4     1
9     4     5     2
10    4     6     1
11    6     20    1
12    6     7     2
13    7     8     1
14    7     26    1
15    8     13    1
16    8     9     2
17    9     10    1
18    10    11    am
19    10    27    1
20    11    12    2
21    11    13    am
22    13    14    1
23    14    20    ar
24    14    15    ar
25    15    16    ar
26    15    28    1
27    16    17    1
28    16    18    ar
29    18    19    ar
30    18    29    1
31    19    20    ar
32    19    30    1
@<TRIPOS>SUBSTRUCTURE
1   ZINC000167970769 1     RESIDUE    1   A     ZIN   1
