@<TRIPOS>MOLECULE
ZINC000028950074
60    66    1     0     0
SMALL
USER_CHARGES
@<TRIPOS>ATOM
1      C1     -0.0178    1.4648    0.0101 C.3      1 ZINC000028950074   -0.0500
2      N2      0.0021   -0.0041    0.0020 N.4      1 ZINC000028950074   -0.3900
3      H3     -0.9446   -0.3531    0.0092 H        1 ZINC000028950074    0.4200
4      C4      0.7119   -0.4904    1.1925 C.3      1 ZINC000028950074    0.0000
5      C5      0.7166   -2.0206    1.1942 C.3      1 ZINC000028950074    0.0200
6      N6      1.3783   -2.5070   -0.0247 N.3      1 ZINC000028950074   -0.4800
7      C7      1.4498   -3.9043   -0.0329 C.ar     1 ZINC000028950074    0.0800
8      C8      0.9206   -4.6312    1.0319 C.ar     1 ZINC000028950074   -0.1400
9      C9      0.9844   -6.0084    1.0365 C.ar     1 ZINC000028950074   -0.0800
10     C10     1.5781   -6.6780   -0.0235 C.ar     1 ZINC000028950074    0.0500
11     N11     1.7942   -8.0145   -0.3102 N.pl3    1 ZINC000028950074   -0.5900
12     C12     2.4379   -8.0668   -1.5206 C.2      1 ZINC000028950074    0.3500
13     C13     2.8577   -9.2971   -2.2031 C.2      1 ZINC000028950074    0.1700
14     C14     3.5200   -9.3782   -3.4339 C.ar     1 ZINC000028950074   -0.1900
15     C15     3.9798   -8.4415   -4.3727 C.ar     1 ZINC000028950074    0.0300
16     C16     4.6106   -8.9193   -5.5122 C.ar     1 ZINC000028950074   -0.1300
17     C17     5.1132   -7.9704   -6.5313 C.ar     1 ZINC000028950074   -0.0800
18     C18     6.4367   -8.0711   -7.0275 C.ar     1 ZINC000028950074   -0.0100
19     C19     7.3246   -9.0587   -6.5872 C.ar     1 ZINC000028950074   -0.1200
20     C20     8.5861   -9.1055   -7.1023 C.ar     1 ZINC000028950074   -0.0900
21     C21     9.0041   -8.1841   -8.0600 C.ar     1 ZINC000028950074   -0.1200
22     C22     8.1660   -7.2097   -8.5106 C.ar     1 ZINC000028950074   -0.0800
23     C23     6.8591   -7.1321   -8.0029 C.ar     1 ZINC000028950074   -0.1100
24     C24     5.9523   -6.1491   -8.4313 C.ar     1 ZINC000028950074    0.1500
25     N25     4.7375   -6.1061   -7.9348 N.ar     1 ZINC000028950074   -0.4900
26     C26     4.2997   -6.9650   -7.0280 C.ar     1 ZINC000028950074    0.1000
27     C27     4.7739  -10.3030   -5.7008 C.ar     1 ZINC000028950074    0.2100
28     N28     4.3489  -11.1813   -4.8327 N.ar     1 ZINC000028950074   -0.4600
29     C29     3.7279  -10.8079   -3.7019 C.ar     1 ZINC000028950074    0.2700
30     N30     3.2107  -11.4681   -2.6795 N.2      1 ZINC000028950074   -0.2400
31     N31     2.6815  -10.5604   -1.7566 N.pl3    1 ZINC000028950074   -0.4000
32     N32     2.6209   -6.8475   -1.9766 N.2      1 ZINC000028950074   -0.4500
33     C33     2.1152   -5.9530   -1.1032 C.ar     1 ZINC000028950074    0.0800
34     C34     2.0396   -4.5557   -1.0995 C.ar     1 ZINC000028950074   -0.0700
35     C35     0.6932   -2.0076   -1.2253 C.3      1 ZINC000028950074    0.0200
36     C36     0.6890   -0.4775   -1.2069 C.3      1 ZINC000028950074    0.0000
37     H37     1.0047    1.8421    0.0024 H        1 ZINC000028950074    0.1200
38     H38    -0.5450    1.8259   -0.8730 H        1 ZINC000028950074    0.1300
39     H39    -0.5280    1.8163    0.9069 H        1 ZINC000028950074    0.1300
40     H40     1.7384   -0.1239    1.1783 H        1 ZINC000028950074    0.1400
41     H41     0.2090   -0.1276    2.0888 H        1 ZINC000028950074    0.1400
42     H42     1.2562   -2.3817    2.0697 H        1 ZINC000028950074    0.1300
43     H43    -0.3095   -2.3874    1.2221 H        1 ZINC000028950074    0.0700
44     H44     0.4582   -4.1126    1.8587 H        1 ZINC000028950074    0.1400
45     H45     0.5727   -6.5655    1.8651 H        1 ZINC000028950074    0.1400
46     H46     1.5391   -8.7712    0.2406 H        1 ZINC000028950074    0.4300
47     H47     3.8462   -7.3817   -4.2132 H        1 ZINC000028950074    0.1500
48     H48     7.0131   -9.7784   -5.8447 H        1 ZINC000028950074    0.1300
49     H49     9.2716   -9.8677   -6.7625 H        1 ZINC000028950074    0.1300
50     H50    10.0090   -8.2433   -8.4513 H        1 ZINC000028950074    0.1300
51     H51     8.5040   -6.5018   -9.2529 H        1 ZINC000028950074    0.1400
52     H52     6.2557   -5.4246   -9.1725 H        1 ZINC000028950074    0.1700
53     H53     3.2884   -6.8745   -6.6601 H        1 ZINC000028950074    0.1500
54     H54     5.2681  -10.6519   -6.5955 H        1 ZINC000028950074    0.1700
55     H55     2.2480  -10.8017   -0.9231 H        1 ZINC000028950074    0.4500
56     H56     2.4425   -3.9886   -1.9257 H        1 ZINC000028950074    0.1400
57     H57     1.2157   -2.3592   -2.1150 H        1 ZINC000028950074    0.1300
58     H58    -0.3333   -2.3742   -1.2373 H        1 ZINC000028950074    0.0700
59     H59     0.1689   -0.1049   -2.0894 H        1 ZINC000028950074    0.1400
60     H60     1.7157   -0.1113   -1.2087 H        1 ZINC000028950074    0.1400
@<TRIPOS>BOND
1     1     2     1
2     1     37    1
3     1     38    1
4     1     39    1
5     2     3     1
6     2     36    1
7     2     4     1
8     4     5     1
9     4     40    1
10    4     41    1
11    5     6     1
12    5     42    1
13    5     43    1
14    6     7     1
15    6     35    1
16    7     34    ar
17    7     8     ar
18    8     9     ar
19    8     44    1
20    9     10    ar
21    9     45    1
22    10    33    ar
23    10    11    1
24    11    12    1
25    11    46    1
26    12    13    1
27    12    32    2
28    13    31    1
29    13    14    2
30    14    29    ar
31    14    15    ar
32    15    16    ar
33    15    47    1
34    16    17    1
35    16    27    ar
36    17    26    ar
37    17    18    ar
38    18    23    ar
39    18    19    ar
40    19    20    ar
41    19    48    1
42    20    21    ar
43    20    49    1
44    21    22    ar
45    21    50    1
46    22    23    ar
47    22    51    1
48    23    24    ar
49    24    25    ar
50    24    52    1
51    25    26    ar
52    26    53    1
53    27    28    ar
54    27    54    1
55    28    29    ar
56    29    30    2
57    30    31    1
58    31    55    1
59    32    33    1
60    33    34    ar
61    34    56    1
62    35    36    1
63    35    57    1
64    35    58    1
65    36    59    1
66    36    60    1
@<TRIPOS>SUBSTRUCTURE
1   ZINC000028950074 1     RESIDUE    1   A     ZIN   1
