@<TRIPOS>MOLECULE
ZINC000000459377
37    39    1     0     0
SMALL
USER_CHARGES
@<TRIPOS>ATOM
1      C1     -0.7384    1.0318   -0.8936 C.3      1 ZINC000000459377   -0.0900
2      C2     -0.3478   -0.2699   -0.2424 C.2      1 ZINC000000459377   -0.1900
3      C3     -0.7464   -0.6579    0.9792 C.2      1 ZINC000000459377   -0.1700
4      C4     -0.2772   -1.8791    1.3850 C.2      1 ZINC000000459377   -0.0400
5      C5      0.5281   -2.4888    0.4484 C.2      1 ZINC000000459377   -0.2900
6      C6      1.1447   -3.7416    0.5951 C.2      1 ZINC000000459377    0.1900
7      C7      2.4559   -3.9251    0.1706 C.2      1 ZINC000000459377   -0.3200
8      C8      3.3184   -2.7823   -0.1771 C.2      1 ZINC000000459377    0.5500
9      O9      2.9037   -1.6407   -0.1011 O.2      1 ZINC000000459377   -0.4600
10     N10     4.5801   -3.0354   -0.5815 N.am     1 ZINC000000459377   -0.5100
11     C11     5.4574   -1.9159   -0.9328 C.3      1 ZINC000000459377    0.0700
12     C12     5.0497   -4.2879   -0.6688 C.2      1 ZINC000000459377    0.5200
13     S13     6.6645   -4.5139   -1.1905 S.2      1 ZINC000000459377   -0.4900
14     N14     4.3217   -5.3727   -0.3688 N.am     1 ZINC000000459377   -0.4700
15     C15     4.9020   -6.6419   -0.4919 C.ar     1 ZINC000000459377    0.1200
16     C16     5.7255   -7.1307    0.5135 C.ar     1 ZINC000000459377   -0.0800
17     C17     6.2961   -8.3823    0.3892 C.ar     1 ZINC000000459377   -0.1100
18     C18     6.0481   -9.1484   -0.7350 C.ar     1 ZINC000000459377   -0.1000
19     C19     5.2284   -8.6643   -1.7379 C.ar     1 ZINC000000459377   -0.1100
20     C20     4.6502   -7.4158   -1.6169 C.ar     1 ZINC000000459377   -0.0800
21     C21     3.0451   -5.2700    0.0547 C.2      1 ZINC000000459377    0.5600
22     O22     2.3945   -6.2624    0.3244 O.2      1 ZINC000000459377   -0.4600
23     S23     0.6534   -1.4481   -0.9633 S.3      1 ZINC000000459377    0.3100
24     H24    -0.2835    1.0944   -1.8822 H        1 ZINC000000459377    0.0700
25     H25    -1.8231    1.0792   -0.9892 H        1 ZINC000000459377    0.0800
26     H26    -0.3910    1.8634   -0.2805 H        1 ZINC000000459377    0.0800
27     H27    -1.3906   -0.0506    1.5979 H        1 ZINC000000459377    0.1500
28     H28    -0.5141   -2.3190    2.3425 H        1 ZINC000000459377    0.1500
29     H29     0.6005   -4.5628    1.0376 H        1 ZINC000000459377    0.1700
30     H30     4.9178   -0.9775   -0.8048 H        1 ZINC000000459377    0.1100
31     H31     6.3331   -1.9230   -0.2838 H        1 ZINC000000459377    0.1000
32     H32     5.7739   -2.0144   -1.9712 H        1 ZINC000000459377    0.1000
33     H33     5.9199   -6.5328    1.3916 H        1 ZINC000000459377    0.1200
34     H34     6.9370   -8.7630    1.1707 H        1 ZINC000000459377    0.1300
35     H35     6.4957  -10.1266   -0.8300 H        1 ZINC000000459377    0.1300
36     H36     5.0368   -9.2648   -2.6149 H        1 ZINC000000459377    0.1300
37     H37     4.0101   -7.0383   -2.4005 H        1 ZINC000000459377    0.1200
@<TRIPOS>BOND
1     1     2     1
2     1     24    1
3     1     25    1
4     1     26    1
5     2     23    1
6     2     3     2
7     3     4     1
8     3     27    1
9     4     5     2
10    4     28    1
11    5     6     1
12    5     23    1
13    6     7     2
14    6     29    1
15    7     21    1
16    7     8     1
17    8     9     2
18    8     10    am
19    10    11    1
20    10    12    am
21    11    30    1
22    11    31    1
23    11    32    1
24    12    13    2
25    12    14    am
26    14    15    1
27    14    21    am
28    15    20    ar
29    15    16    ar
30    16    17    ar
31    16    33    1
32    17    18    ar
33    17    34    1
34    18    19    ar
35    18    35    1
36    19    20    ar
37    19    36    1
38    20    37    1
39    21    22    2
@<TRIPOS>SUBSTRUCTURE
1   ZINC000000459377 1     RESIDUE    1   A     ZIN   1
