@<TRIPOS>MOLECULE
ZINC000016051338
46    49    1     0     0
SMALL
USER_CHARGES
@<TRIPOS>ATOM
1      O1     -1.2255    3.1174    1.6481 O.co2    1 ZINC000016051338   -0.6600
2      C2     -1.7387    2.0819    1.2596 C.2      1 ZINC000016051338    0.4900
3      O3     -1.5087    1.0333    1.8376 O.co2    1 ZINC000016051338   -0.6800
4      C4     -2.6622    2.0991    0.0688 C.3      1 ZINC000016051338    0.0900
5      H5     -3.4028    1.3061    0.1719 H        1 ZINC000016051338    0.1200
6      C6     -1.8630    1.8796   -1.1898 C.ar     1 ZINC000016051338   -0.0600
7      C7     -0.6440    2.5107   -1.3532 C.ar     1 ZINC000016051338   -0.0900
8      C8      0.0894    2.3098   -2.5073 C.ar     1 ZINC000016051338   -0.1100
9      C9     -0.3967    1.4767   -3.4992 C.ar     1 ZINC000016051338   -0.0400
10     Cl10    0.5241    1.2233   -4.9489 Cl       1 ZINC000016051338   -0.0800
11     C11    -1.6168    0.8453   -3.3351 C.ar     1 ZINC000016051338   -0.1100
12     C12    -2.3466    1.0426   -2.1781 C.ar     1 ZINC000016051338   -0.1000
13     N13    -3.3413    3.3952   -0.0038 N.am     1 ZINC000016051338   -0.5500
14     C14    -4.6591    3.4508    0.1821 C.2      1 ZINC000016051338    0.5500
15     O15    -5.2417    2.4107    0.4211 O.2      1 ZINC000016051338   -0.5300
16     C16    -5.4560    4.6816    0.1187 C.ar     1 ZINC000016051338   -0.1300
17     C17    -6.7130    4.6104   -0.5040 C.ar     1 ZINC000016051338   -0.0100
18     C18    -7.5085    5.7285   -0.6018 C.ar     1 ZINC000016051338   -0.1300
19     I19    -9.3804    5.6034   -1.5340 I        1 ZINC000016051338   -0.0400
20     C20    -7.0723    6.9374   -0.0835 C.ar     1 ZINC000016051338   -0.0400
21     C21    -5.8434    7.0229    0.5321 C.ar     1 ZINC000016051338   -0.1500
22     C22    -5.0220    5.8984    0.6437 C.ar     1 ZINC000016051338    0.2200
23     N23    -3.8066    6.0623    1.2851 N.am     1 ZINC000016051338   -0.6700
24     C24    -2.6525    5.5220    0.9055 C.2      1 ZINC000016051338    0.5300
25     O25    -1.6470    5.7815    1.5321 O.2      1 ZINC000016051338   -0.4700
26     C26    -2.5559    4.5996   -0.2729 C.3      1 ZINC000016051338    0.1800
27     H27    -1.5137    4.3273   -0.4390 H        1 ZINC000016051338    0.1500
28     C28    -3.0993    5.2879   -1.4985 C.ar     1 ZINC000016051338   -0.1000
29     C29    -3.2098    6.6656   -1.5254 C.ar     1 ZINC000016051338   -0.1000
30     C30    -3.7081    7.2974   -2.6492 C.ar     1 ZINC000016051338   -0.1000
31     C31    -4.0963    6.5507   -3.7473 C.ar     1 ZINC000016051338   -0.0300
32     Cl32   -4.7217    7.3435   -5.1594 Cl       1 ZINC000016051338   -0.0700
33     C33    -3.9855    5.1719   -3.7198 C.ar     1 ZINC000016051338   -0.1000
34     C34    -3.4818    4.5416   -2.5975 C.ar     1 ZINC000016051338   -0.0800
35     H35    -0.2648    3.1613   -0.5790 H        1 ZINC000016051338    0.1500
36     H36     1.0415    2.8032   -2.6350 H        1 ZINC000016051338    0.1300
37     H37    -1.9969    0.1951   -4.1092 H        1 ZINC000016051338    0.1300
38     H38    -3.2989    0.5495   -2.0497 H        1 ZINC000016051338    0.1300
39     H39    -7.0576    3.6706   -0.9095 H        1 ZINC000016051338    0.1400
40     H40    -7.6973    7.8146   -0.1628 H        1 ZINC000016051338    0.1400
41     H41    -5.5114    7.9690    0.9332 H        1 ZINC000016051338    0.1400
42     H42    -3.7957    6.6192    2.0792 H        1 ZINC000016051338    0.4100
43     H43    -2.9070    7.2484   -0.6680 H        1 ZINC000016051338    0.1300
44     H44    -3.7947    8.3737   -2.6700 H        1 ZINC000016051338    0.1300
45     H45    -4.2887    4.5884   -4.5765 H        1 ZINC000016051338    0.1300
46     H46    -3.3949    3.4653   -2.5760 H        1 ZINC000016051338    0.1300
@<TRIPOS>BOND
1     1     2     ar
2     2     3     ar
3     2     4     1
4     4     5     1
5     4     6     1
6     4     13    1
7     6     12    ar
8     6     7     ar
9     7     8     ar
10    7     35    1
11    8     9     ar
12    8     36    1
13    9     10    1
14    9     11    ar
15    11    12    ar
16    11    37    1
17    12    38    1
18    13    26    1
19    13    14    am
20    14    15    2
21    14    16    1
22    16    22    ar
23    16    17    ar
24    17    18    ar
25    17    39    1
26    18    19    1
27    18    20    ar
28    20    21    ar
29    20    40    1
30    21    22    ar
31    21    41    1
32    22    23    1
33    23    24    am
34    23    42    1
35    24    25    2
36    24    26    1
37    26    27    1
38    26    28    1
39    28    34    ar
40    28    29    ar
41    29    30    ar
42    29    43    1
43    30    31    ar
44    30    44    1
45    31    32    1
46    31    33    ar
47    33    34    ar
48    33    45    1
49    34    46    1
@<TRIPOS>SUBSTRUCTURE
1   ZINC000016051338 1     RESIDUE    1   A     ZIN   1
