@<TRIPOS>MOLECULE
ZINC000001486219
63    66    1     0     0
SMALL
USER_CHARGES
@<TRIPOS>ATOM
1      C1     -0.1174    1.6074   -0.6952 C.3      1 ZINC000001486219   -0.1900
2      C2     -0.0830    0.0900   -0.5022 C.3      1 ZINC000001486219   -0.0200
3      N3     -1.4294   -0.3915   -0.1656 N.4      1 ZINC000001486219   -0.3900
4      H4     -1.7778    0.1158    0.6340 H        1 ZINC000001486219    0.4300
5      C5     -2.3260   -0.1781   -1.3095 C.3      1 ZINC000001486219   -0.0100
6      C6     -3.7570   -0.5447   -0.9112 C.3      1 ZINC000001486219   -0.1900
7      C7     -1.3719   -1.8248    0.1508 C.3      1 ZINC000001486219   -0.0100
8      C8     -0.5388   -2.0346    1.4168 C.3      1 ZINC000001486219    0.0300
9      O9     -1.2007   -1.4283    2.5287 O.3      1 ZINC000001486219   -0.3300
10     C10    -0.5884   -1.5243    3.7390 C.ar     1 ZINC000001486219    0.1000
11     C11     0.6268   -2.1838    3.8508 C.ar     1 ZINC000001486219   -0.1800
12     C12     1.2490   -2.2822    5.0796 C.ar     1 ZINC000001486219   -0.0700
13     C13     0.6581   -1.7203    6.2036 C.ar     1 ZINC000001486219    0.1400
14     N14     1.2885   -1.8192    7.4500 N.pl3    1 ZINC000001486219   -0.6300
15     C15     2.6675   -1.8051    7.5295 C.ar     1 ZINC000001486219    0.6000
16     N16     3.3700   -1.5839    6.4237 N.ar     1 ZINC000001486219   -0.5800
17     C17     4.6894   -1.5602    6.4458 C.ar     1 ZINC000001486219    0.2600
18     C18     5.3445   -1.7746    7.6677 C.ar     1 ZINC000001486219   -0.2700
19     C19     6.7553   -1.7607    7.7546 C.2      1 ZINC000001486219    0.0200
20     C20     7.3476   -1.9748    8.9703 C.2      1 ZINC000001486219   -0.1500
21     C21     8.8239   -1.9660    9.0945 C.ar     1 ZINC000001486219   -0.0200
22     C22     9.5484   -3.1466    8.9260 C.ar     1 ZINC000001486219   -0.0100
23     Cl23    8.7219   -4.6312    8.5702 Cl       1 ZINC000001486219   -0.0500
24     C24    10.9245   -3.1314    9.0426 C.ar     1 ZINC000001486219   -0.1100
25     C25    11.5846   -1.9493    9.3262 C.ar     1 ZINC000001486219   -0.0800
26     C26    10.8724   -0.7755    9.4948 C.ar     1 ZINC000001486219   -0.1000
27     C27     9.4964   -0.7758    9.3747 C.ar     1 ZINC000001486219   -0.0100
28     Cl28    8.6044    0.6983    9.5866 Cl       1 ZINC000001486219   -0.0500
29     C29     6.5086   -2.2123   10.1470 C.2      1 ZINC000001486219    0.5600
30     O30     7.0273   -2.4037   11.2324 O.2      1 ZINC000001486219   -0.4900
31     N31     5.1664   -2.2196   10.0352 N.am     1 ZINC000001486219   -0.5100
32     C32     4.3413   -2.4582   11.2220 C.3      1 ZINC000001486219    0.0700
33     C33     4.5640   -2.0064    8.8210 C.ar     1 ZINC000001486219    0.4700
34     N34     3.2407   -2.0072    8.7061 N.ar     1 ZINC000001486219   -0.5900
35     C35    -0.5583   -1.0598    6.0909 C.ar     1 ZINC000001486219   -0.1000
36     C36    -1.1767   -0.9578    4.8603 C.ar     1 ZINC000001486219   -0.1200
37     H37     0.8969    1.9779   -0.8434 H        1 ZINC000001486219    0.1100
38     H38    -0.7237    1.8490   -1.5682 H        1 ZINC000001486219    0.0800
39     H39    -0.5500    2.0763    0.1886 H        1 ZINC000001486219    0.0800
40     H40     0.2533   -0.3858   -1.4234 H        1 ZINC000001486219    0.1300
41     H41     0.6043   -0.1579    0.3066 H        1 ZINC000001486219    0.1300
42     H42    -2.2893    0.8692   -1.6095 H        1 ZINC000001486219    0.1300
43     H43    -2.0084   -0.8059   -2.1421 H        1 ZINC000001486219    0.1300
44     H44    -3.8153   -1.6142   -0.7092 H        1 ZINC000001486219    0.0800
45     H45    -4.0384    0.0100   -0.0161 H        1 ZINC000001486219    0.0800
46     H46    -4.4368   -0.2910   -1.7246 H        1 ZINC000001486219    0.1100
47     H47    -2.3817   -2.2017    0.3138 H        1 ZINC000001486219    0.1400
48     H48    -0.9132   -2.3621   -0.6792 H        1 ZINC000001486219    0.1500
49     H49    -0.4216   -3.1024    1.6019 H        1 ZINC000001486219    0.1100
50     H50     0.4426   -1.5789    1.2856 H        1 ZINC000001486219    0.0900
51     H51     1.0863   -2.6208    2.9765 H        1 ZINC000001486219    0.1300
52     H52     2.1948   -2.7963    5.1666 H        1 ZINC000001486219    0.1400
53     H53     0.7569   -1.8976    8.2575 H        1 ZINC000001486219    0.4300
54     H54     5.2529   -1.3801    5.5422 H        1 ZINC000001486219    0.1900
55     H55     7.3570   -1.5841    6.8753 H        1 ZINC000001486219    0.1500
56     H56    11.4865   -4.0444    8.9125 H        1 ZINC000001486219    0.1500
57     H57    12.6608   -1.9428    9.4166 H        1 ZINC000001486219    0.1500
58     H58    11.3937    0.1440    9.7163 H        1 ZINC000001486219    0.1500
59     H59     4.9855   -2.6062   12.0887 H        1 ZINC000001486219    0.1000
60     H60     3.6938   -1.5982   11.3933 H        1 ZINC000001486219    0.0800
61     H61     3.7305   -3.3476   11.0672 H        1 ZINC000001486219    0.0800
62     H62    -1.0185   -0.6225    6.9646 H        1 ZINC000001486219    0.1400
63     H63    -2.1225   -0.4439    4.7724 H        1 ZINC000001486219    0.1400
@<TRIPOS>BOND
1     1     2     1
2     1     37    1
3     1     38    1
4     1     39    1
5     2     3     1
6     2     40    1
7     2     41    1
8     3     4     1
9     3     5     1
10    3     7     1
11    5     6     1
12    5     42    1
13    5     43    1
14    6     44    1
15    6     45    1
16    6     46    1
17    7     8     1
18    7     47    1
19    7     48    1
20    8     9     1
21    8     49    1
22    8     50    1
23    9     10    1
24    10    36    ar
25    10    11    ar
26    11    12    ar
27    11    51    1
28    12    13    ar
29    12    52    1
30    13    14    1
31    13    35    ar
32    14    15    1
33    14    53    1
34    15    34    ar
35    15    16    ar
36    16    17    ar
37    17    18    ar
38    17    54    1
39    18    33    ar
40    18    19    1
41    19    20    2
42    19    55    1
43    20    21    1
44    20    29    1
45    21    27    ar
46    21    22    ar
47    22    23    1
48    22    24    ar
49    24    25    ar
50    24    56    1
51    25    26    ar
52    25    57    1
53    26    27    ar
54    26    58    1
55    27    28    1
56    29    30    2
57    29    31    am
58    31    32    1
59    31    33    1
60    32    59    1
61    32    60    1
62    32    61    1
63    33    34    ar
64    35    36    ar
65    35    62    1
66    36    63    1
@<TRIPOS>SUBSTRUCTURE
1   ZINC000001486219 1     RESIDUE    1   A     ZIN   1
