@<TRIPOS>MOLECULE
ZINC000000603769
  45   49    0    0    0
SMALL
USER_CHARGES
NO_NAME
@<TRIPOS>ATOM
    1 N1       -0.0162     1.3436     0.0094 N.am   1 <0>      -0.8500
    2 C2        0.0021    -0.0041     0.0020 C.2    1 <0>       0.5600
    3 O3        1.0630    -0.5975    -0.0113 O.2    1 <0>      -0.5400
    4 C4       -1.2670    -0.7600     0.0101 C.ar   1 <0>      -0.1300
    5 C5       -2.4866    -0.0779     0.0195 C.ar   1 <0>      -0.0800
    6 C6       -3.6688    -0.7821     0.0266 C.ar   1 <0>      -0.0800
    7 C7       -3.6498    -2.1793     0.0242 C.ar   1 <0>       0.0100
    8 C8       -4.9191    -2.9353     0.0313 C.2    1 <0>       0.2600
    9 N9       -6.1217    -2.4048     0.0342 N.2    1 <0>      -0.4500
   10 C10      -7.0424    -3.3791     0.0398 C.2    1 <0>       0.1100
   11 C11      -8.5123    -3.1922     0.0438 C.ar   1 <0>       0.0100
   12 C12      -9.3323    -4.0896    -0.6389 C.ar   1 <0>      -0.0500
   13 C13     -10.7012    -3.9145    -0.6344 C.ar   1 <0>      -0.1000
   14 C14     -11.2656    -2.8477     0.0480 C.ar   1 <0>       0.0400
   15 O15     -12.5660    -2.4613     0.2021 O.3    1 <0>      -0.3100
   16 C16     -12.5685    -1.5568     1.3222 C.3    1 <0>       0.2100
   17 O17     -11.2413    -0.9987     1.3148 O.3    1 <0>      -0.3100
   18 C18     -10.4504    -1.9473     0.7329 C.ar   1 <0>       0.0200
   19 C19      -9.0788    -2.1215     0.7352 C.ar   1 <0>      -0.0700
   20 C20      -6.3723    -4.5934     0.0404 C.2    1 <0>       0.0400
   21 C21      -6.9790    -5.9374     0.0451 C.ar   1 <0>       0.1900
   22 C22      -6.2619    -7.0238    -0.4620 C.ar   1 <0>      -0.1700
   23 C23      -6.8453    -8.2777    -0.4503 C.ar   1 <0>      -0.0700
   24 C24      -8.1270    -8.4085     0.0674 C.ar   1 <0>      -0.1700
   25 C25      -8.7809    -7.2910     0.5536 C.ar   1 <0>       0.1100
   26 N26      -8.2029    -6.1076     0.5370 N.ar   1 <0>      -0.4600
   27 N27      -5.0295    -4.2952     0.0299 N.pl3  1 <0>      -0.5500
   28 C28      -2.4304    -2.8614     0.0148 C.ar   1 <0>      -0.1200
   29 C29      -1.2481    -2.1573     0.0024 C.ar   1 <0>      -0.0500
   30 H30       0.8172     1.8399     0.0041 H      1 <0>       0.4100
   31 H31      -0.8627     1.8171     0.0160 H      1 <0>       0.4000
   32 H32      -2.5013     1.0020     0.0217 H      1 <0>       0.1400
   33 H33      -4.6114    -0.2549     0.0342 H      1 <0>       0.1500
   34 H34      -8.8962    -4.9217    -1.1716 H      1 <0>       0.1300
   35 H35     -11.3347    -4.6104    -1.1644 H      1 <0>       0.1400
   36 H36     -13.3138    -0.7741     1.1807 H      1 <0>       0.1300
   37 H37     -12.7513    -2.0976     2.2508 H      1 <0>       0.0800
   38 H38      -8.4465    -1.4278     1.2695 H      1 <0>       0.1400
   39 H39      -5.2665    -6.8864    -0.8578 H      1 <0>       0.1300
   40 H40      -6.3156    -9.1363    -0.8358 H      1 <0>       0.1400
   41 H41      -8.6093    -9.3745     0.0899 H      1 <0>       0.1400
   42 H42      -9.7780    -7.3908     0.9564 H      1 <0>       0.1600
   43 H43      -4.2981    -4.9323     0.0276 H      1 <0>       0.4200
   44 H44      -2.4157    -3.9413     0.0130 H      1 <0>       0.1300
   45 H45      -0.3056    -2.6845    -0.0053 H      1 <0>       0.1400
@<TRIPOS>BOND
   1    1    2 am
   2    1   30 1
   3    1   31 1
   4    2    3 2
   5    2    4 1
   6    4   29 ar
   7    4    5 ar
   8    5    6 ar
   9    5   32 1
  10    6    7 ar
  11    6   33 1
  12    7    8 1
  13    7   28 ar
  14    8   27 1
  15    8    9 2
  16    9   10 1
  17   10   11 1
  18   10   20 2
  19   11   19 ar
  20   11   12 ar
  21   12   13 ar
  22   12   34 1
  23   13   14 ar
  24   13   35 1
  25   14   18 ar
  26   14   15 1
  27   15   16 1
  28   16   17 1
  29   16   36 1
  30   16   37 1
  31   17   18 1
  32   18   19 ar
  33   19   38 1
  34   20   21 1
  35   20   27 1
  36   21   26 ar
  37   21   22 ar
  38   22   23 ar
  39   22   39 1
  40   23   24 ar
  41   23   40 1
  42   24   25 ar
  43   24   41 1
  44   25   26 ar
  45   25   42 1
  46   27   43 1
  47   28   29 ar
  48   28   44 1
  49   29   45 1
