@<TRIPOS>MOLECULE
ZINC000003817793
47    50    1     0     0
SMALL
USER_CHARGES
@<TRIPOS>ATOM
1      C1     -0.0098    1.4207    0.1687 C.3      1 ZINC000003817793    0.0200
2      O2      0.0084   -0.0077    0.1352 O.3      1 ZINC000003817793   -0.3000
3      C3     -1.1948   -0.6403    0.1315 C.ar     1 ZINC000003817793    0.1200
4      C4     -2.3665    0.1010    0.1538 C.ar     1 ZINC000003817793   -0.1800
5      C5     -3.5900   -0.5369    0.1496 C.ar     1 ZINC000003817793   -0.0900
6      C6     -3.6503   -1.9300    0.1236 C.ar     1 ZINC000003817793   -0.0400
7      C7     -4.9630   -2.6157    0.1191 C.2      1 ZINC000003817793    0.1900
8      C8     -6.1288   -1.8731    0.1352 C.2      1 ZINC000003817793   -0.1700
9      C9     -7.3602   -2.5564    0.1304 C.2      1 ZINC000003817793    0.2700
10     N10    -8.6200   -2.1553    0.1423 N.2      1 ZINC000003817793   -0.4900
11     C11    -9.4222   -3.2255    0.1302 C.2      1 ZINC000003817793    0.0500
12     C12    -8.6592   -4.3387    0.1102 C.2      1 ZINC000003817793   -0.1000
13     N13    -7.3500   -3.9319    0.1100 N.pl3    1 ZINC000003817793   -0.4200
14     C14    -6.1602   -4.6022    0.0942 C.2      1 ZINC000003817793    0.5700
15     N15    -6.1602   -5.9796    0.0733 N.pl3    1 ZINC000003817793   -0.6100
16     C16    -4.9600   -6.6723    0.0570 C.ar     1 ZINC000003817793    0.4400
17     N17    -3.8189   -6.0095   -0.0454 N.ar     1 ZINC000003817793   -0.4700
18     C18    -2.6550   -6.6292   -0.0642 C.ar     1 ZINC000003817793    0.1600
19     C19    -2.5753   -8.0077    0.0224 C.ar     1 ZINC000003817793   -0.2100
20     C20    -3.7370   -8.7518    0.1313 C.ar     1 ZINC000003817793   -0.0100
21     C21    -4.9609   -8.0738    0.1552 C.ar     1 ZINC000003817793   -0.2400
22     C22    -6.2291   -8.8176    0.2703 C.2      1 ZINC000003817793    0.5800
23     N23    -6.2129  -10.1510    0.4664 N.am     1 ZINC000003817793   -0.8400
24     O24    -7.2894   -8.2280    0.1882 O.2      1 ZINC000003817793   -0.5500
25     N25    -5.0178   -3.9582    0.0940 N.2      1 ZINC000003817793   -0.4700
26     C26    -2.4716   -2.6765    0.1012 C.ar     1 ZINC000003817793   -0.1300
27     C27    -1.2486   -2.0322    0.0996 C.ar     1 ZINC000003817793    0.0900
28     O28    -0.0981   -2.7570    0.0774 O.3      1 ZINC000003817793   -0.3000
29     C29    -0.2280   -4.1799    0.0564 C.3      1 ZINC000003817793    0.0200
30     H30     1.0131    1.7972    0.1680 H        1 ZINC000003817793    0.1000
31     H31    -0.5364    1.7980   -0.7080 H        1 ZINC000003817793    0.0600
32     H32    -0.5200    1.7566    1.0714 H        1 ZINC000003817793    0.0600
33     H33    -2.3214    1.1799    0.1747 H        1 ZINC000003817793    0.1400
34     H34    -4.5012    0.0427    0.1670 H        1 ZINC000003817793    0.1400
35     H35    -6.0960   -0.7937    0.1513 H        1 ZINC000003817793    0.1600
36     H36   -10.5020   -3.2026    0.1359 H        1 ZINC000003817793    0.1900
37     H37    -9.0137   -5.3588    0.0973 H        1 ZINC000003817793    0.1900
38     H38    -7.0002   -6.4646    0.0700 H        1 ZINC000003817793    0.4400
39     H39    -1.7474   -6.0501   -0.1491 H        1 ZINC000003817793    0.1600
40     H40    -1.6139   -8.4993    0.0049 H        1 ZINC000003817793    0.1500
41     H41    -3.6996   -9.8289    0.2003 H        1 ZINC000003817793    0.1400
42     H42    -5.3671  -10.6213    0.5318 H        1 ZINC000003817793    0.4100
43     H43    -7.0471  -10.6402    0.5421 H        1 ZINC000003817793    0.4100
44     H44    -2.5149   -3.7555    0.0809 H        1 ZINC000003817793    0.1600
45     H45    -0.7642   -4.5090    0.9465 H        1 ZINC000003817793    0.0600
46     H46    -0.7812   -4.4812   -0.8332 H        1 ZINC000003817793    0.0600
47     H47     0.7623   -4.6350    0.0399 H        1 ZINC000003817793    0.1000
@<TRIPOS>BOND
1     1     2     1
2     1     30    1
3     1     31    1
4     1     32    1
5     2     3     1
6     3     27    ar
7     3     4     ar
8     4     5     ar
9     4     33    1
10    5     6     ar
11    5     34    1
12    6     7     1
13    6     26    ar
14    7     25    1
15    7     8     2
16    8     9     1
17    8     35    1
18    9     13    1
19    9     10    2
20    10    11    1
21    11    12    2
22    11    36    1
23    12    13    1
24    12    37    1
25    13    14    1
26    14    15    1
27    14    25    2
28    15    16    1
29    15    38    1
30    16    21    ar
31    16    17    ar
32    17    18    ar
33    18    19    ar
34    18    39    1
35    19    20    ar
36    19    40    1
37    20    21    ar
38    20    41    1
39    21    22    1
40    22    23    am
41    22    24    2
42    23    42    1
43    23    43    1
44    26    27    ar
45    26    44    1
46    27    28    1
47    28    29    1
48    29    45    1
49    29    46    1
50    29    47    1
@<TRIPOS>SUBSTRUCTURE
1   ZINC000003817793 1     RESIDUE    1   A     ZIN   1
