@<TRIPOS>MOLECULE
ZINC000040949469
40    44    1     0     0
SMALL
USER_CHARGES
@<TRIPOS>ATOM
1      C1     -0.0178    1.4608    0.0101 C.3      1 ZINC000040949469    0.0700
2      N2      0.0021   -0.0041    0.0020 N.pl3    1 ZINC000040949469   -0.4700
3      C3      0.0079   -0.7750   -1.1187 C.2      1 ZINC000040949469    0.1100
4      C4      0.0281   -2.0938   -0.7691 C.2      1 ZINC000040949469   -0.1400
5      C5      0.0406   -3.2470   -1.6837 C.2      1 ZINC000040949469   -0.0200
6      C6      1.1180   -3.7109   -2.4286 C.2      1 ZINC000040949469   -0.0400
7      C7      2.4792   -3.1471   -2.4632 C.2      1 ZINC000040949469   -0.1400
8      C8      3.4413   -3.2654   -1.5084 C.2      1 ZINC000040949469    0.0600
9      O9      4.5495   -2.6163   -1.8969 O.3      1 ZINC000040949469   -0.1800
10     C10     4.3828   -2.0444   -3.1073 C.ar     1 ZINC000040949469    0.0500
11     C11     5.2133   -1.2828   -3.9197 C.ar     1 ZINC000040949469   -0.1000
12     C12     4.7549   -0.8243   -5.1367 C.ar     1 ZINC000040949469   -0.0900
13     C13     3.4678   -1.1149   -5.5625 C.ar     1 ZINC000040949469   -0.1300
14     C14     2.6286   -1.8689   -4.7699 C.ar     1 ZINC000040949469   -0.0700
15     C15     3.0829   -2.3430   -3.5434 C.ar     1 ZINC000040949469   -0.1000
16     C16     0.6233   -4.8830   -3.1786 C.2      1 ZINC000040949469    0.5600
17     O17     1.2783   -5.5621   -3.9441 O.2      1 ZINC000040949469   -0.4400
18     N18    -0.6713   -5.0738   -2.8735 N.am     1 ZINC000040949469   -0.6900
19     C19    -1.0890   -4.1505   -1.9910 C.2      1 ZINC000040949469    0.5600
20     O20    -2.2093   -4.0673   -1.5289 O.2      1 ZINC000040949469   -0.4400
21     C21     0.0354   -2.1369    0.7039 C.ar     1 ZINC000040949469   -0.0700
22     C22     0.0538   -3.1678    1.6403 C.ar     1 ZINC000040949469   -0.0400
23     C23     0.0552   -2.8675    2.9860 C.ar     1 ZINC000040949469   -0.1100
24     Br24    0.0807   -4.2629    4.2620 Br       1 ZINC000040949469   -0.0500
25     C25     0.0384   -1.5455    3.4082 C.ar     1 ZINC000040949469   -0.0700
26     C26     0.0197   -0.5160    2.4920 C.ar     1 ZINC000040949469   -0.1100
27     C27     0.0236   -0.7984    1.1302 C.ar     1 ZINC000040949469    0.1100
28     H28     1.0048    1.8381    0.0023 H        1 ZINC000040949469    0.0800
29     H29    -0.5450    1.8219   -0.8730 H        1 ZINC000040949469    0.0900
30     H30    -0.5280    1.8123    0.9069 H        1 ZINC000040949469    0.0900
31     H31    -0.0024   -0.4001   -2.1315 H        1 ZINC000040949469    0.1800
32     H32     3.3298   -3.8013   -0.5774 H        1 ZINC000040949469    0.2100
33     H33     6.2176   -1.0496   -3.5981 H        1 ZINC000040949469    0.1300
34     H34     5.4048   -0.2326   -5.7644 H        1 ZINC000040949469    0.1400
35     H35     3.1214   -0.7492   -6.5178 H        1 ZINC000040949469    0.1300
36     H36     1.6258   -2.0945   -5.1016 H        1 ZINC000040949469    0.1200
37     H37    -1.2261   -5.7816   -3.2369 H        1 ZINC000040949469    0.4300
38     H38     0.0664   -4.1973    1.3140 H        1 ZINC000040949469    0.1300
39     H39     0.0397   -1.3213    4.4647 H        1 ZINC000040949469    0.1400
40     H40     0.0061    0.5092    2.8313 H        1 ZINC000040949469    0.1300
@<TRIPOS>BOND
1     1     2     1
2     1     28    1
3     1     29    1
4     1     30    1
5     2     27    1
6     2     3     1
7     3     4     2
8     3     31    1
9     4     5     1
10    4     21    1
11    5     19    1
12    5     6     2
13    6     7     1
14    6     16    1
15    7     15    1
16    7     8     2
17    8     9     1
18    8     32    1
19    9     10    1
20    10    15    ar
21    10    11    ar
22    11    12    ar
23    11    33    1
24    12    13    ar
25    12    34    1
26    13    14    ar
27    13    35    1
28    14    15    ar
29    14    36    1
30    16    17    2
31    16    18    am
32    18    19    am
33    18    37    1
34    19    20    2
35    21    27    ar
36    21    22    ar
37    22    23    ar
38    22    38    1
39    23    24    1
40    23    25    ar
41    25    26    ar
42    25    39    1
43    26    27    ar
44    26    40    1
@<TRIPOS>SUBSTRUCTURE
1   ZINC000040949469 1     RESIDUE    1   A     ZIN   1
