@<TRIPOS>MOLECULE
ZINC000043202843
62    66    1     0     0
SMALL
USER_CHARGES
@<TRIPOS>ATOM
1      C1     -0.0184    1.5028    0.0103 C.3      1 ZINC000043202843   -0.1000
2      C2      0.0021   -0.0041    0.0020 C.2      1 ZINC000043202843   -0.0900
3      C3      0.0061   -0.7014   -1.1229 C.2      1 ZINC000043202843   -0.1400
4      C4     -0.0093   -0.0985   -2.5039 C.3      1 ZINC000043202843    0.1200
5      N5      1.3705    0.1167   -2.9597 N.3      1 ZINC000043202843   -0.5300
6      C6      2.1829    0.7364   -1.9043 C.3      1 ZINC000043202843    0.0300
7      C7      3.6484    0.7778   -2.3503 C.3      1 ZINC000043202843    0.1200
8      N8      3.7194    1.4421   -3.6606 N.am     1 ZINC000043202843   -1.0000
9      S9      4.7703    2.6948   -3.9226 S.o2     1 ZINC000043202843    2.6100
10     C10     6.2906    1.8957   -4.5061 C.3      1 ZINC000043202843   -0.6700
11     O11     4.1680    3.4446   -4.9686 O.2      1 ZINC000043202843   -0.9500
12     O12     4.9677    3.2618   -2.6346 O.2      1 ZINC000043202843   -0.9500
13     C13     2.8326    0.9640   -4.7321 C.3      1 ZINC000043202843    0.1200
14     C14     1.3992    0.9153   -4.1923 C.3      1 ZINC000043202843    0.0400
15     S15     0.0318   -2.4245   -0.7872 S.3      1 ZINC000043202843    0.1800
16     C16     0.0365   -2.1332    0.9462 C.ar     1 ZINC000043202843   -0.2900
17     C17     0.0544   -3.0161    2.0396 C.ar     1 ZINC000043202843    0.4200
18     N18     0.0729   -4.3865    1.8364 N.3      1 ZINC000043202843   -0.4700
19     C19    -1.0679   -4.8124    1.0126 C.3      1 ZINC000043202843    0.0200
20     C20    -0.9758   -6.3202    0.7636 C.3      1 ZINC000043202843    0.0700
21     O21    -0.9294   -7.0037    2.0190 O.3      1 ZINC000043202843   -0.3800
22     C22     0.1699   -6.6136    2.8466 C.3      1 ZINC000043202843    0.0600
23     C23     0.0894   -5.1087    3.1167 C.3      1 ZINC000043202843    0.0300
24     N24     0.0537   -2.5182    3.2684 N.ar     1 ZINC000043202843   -0.5500
25     C25     0.0364   -1.2039    3.4680 C.ar     1 ZINC000043202843    0.4200
26     C26     0.0369   -0.6921    4.8591 C.ar     1 ZINC000043202843   -0.2200
27     C27     0.0611   -1.5708    5.9461 C.ar     1 ZINC000043202843    0.2500
28     N28     0.0611   -1.0759    7.1708 N.ar     1 ZINC000043202843   -0.5700
29     C29     0.0387    0.2337    7.3753 C.ar     1 ZINC000043202843    0.5800
30     N30     0.0396    0.7110    8.6725 N.pl3    1 ZINC000043202843   -0.8100
31     N31     0.0158    1.0985    6.3708 N.ar     1 ZINC000043202843   -0.5700
32     C32     0.0191    0.6817    5.1174 C.ar     1 ZINC000043202843    0.2500
33     N33     0.0193   -0.3402    2.4732 N.ar     1 ZINC000043202843   -0.5100
34     C34     0.0241   -0.7568    1.1873 C.ar     1 ZINC000043202843    0.2100
35     H35     1.0042    1.8801    0.0026 H        1 ZINC000043202843    0.0800
36     H36    -0.5455    1.8639   -0.8728 H        1 ZINC000043202843    0.0700
37     H37    -0.5286    1.8543    0.9071 H        1 ZINC000043202843    0.0800
38     H38    -0.5173   -0.7758   -3.1904 H        1 ZINC000043202843    0.1000
39     H39    -0.5364    0.8553   -2.4781 H        1 ZINC000043202843    0.0700
40     H40     1.8295    1.7512   -1.7217 H        1 ZINC000043202843    0.0500
41     H41     2.0977    0.1510   -0.9888 H        1 ZINC000043202843    0.0900
42     H42     4.2367    1.3378   -1.6234 H        1 ZINC000043202843    0.1000
43     H43     4.0346   -0.2381   -2.4334 H        1 ZINC000043202843    0.0800
44     H44     6.0817    1.3417   -5.4213 H        1 ZINC000043202843    0.1300
45     H45     7.0467    2.6550   -4.7057 H        1 ZINC000043202843    0.1300
46     H46     6.6571    1.2101   -3.7421 H        1 ZINC000043202843    0.1300
47     H47     2.8815    1.6472   -5.5800 H        1 ZINC000043202843    0.1000
48     H48     3.1404   -0.0340   -5.0442 H        1 ZINC000043202843    0.0800
49     H49     0.7457    0.4597   -4.9362 H        1 ZINC000043202843    0.0900
50     H50     1.0567    1.9276   -3.9780 H        1 ZINC000043202843    0.0500
51     H51    -1.9979   -4.5857    1.5339 H        1 ZINC000043202843    0.0700
52     H52    -1.0460   -4.2840    0.0595 H        1 ZINC000043202843    0.0900
53     H53    -1.8495   -6.6502    0.2016 H        1 ZINC000043202843    0.1100
54     H54    -0.0721   -6.5407    0.1954 H        1 ZINC000043202843    0.0700
55     H55     0.1248   -7.1558    3.7910 H        1 ZINC000043202843    0.1100
56     H56     1.1069   -6.8426    2.3390 H        1 ZINC000043202843    0.0600
57     H57     0.9561   -4.7967    3.6995 H        1 ZINC000043202843    0.1000
58     H58    -0.8221   -4.8868    3.6716 H        1 ZINC000043202843    0.0700
59     H59     0.0791   -2.6388    5.7868 H        1 ZINC000043202843    0.1800
60     H60     0.0565    0.0902    9.4177 H        1 ZINC000043202843    0.4200
61     H61     0.0234    1.6667    8.8377 H        1 ZINC000043202843    0.4200
62     H62     0.0004    1.3918    4.3039 H        1 ZINC000043202843    0.1800
@<TRIPOS>BOND
1     1     2     1
2     1     35    1
3     1     36    1
4     1     37    1
5     2     34    1
6     2     3     2
7     3     4     1
8     3     15    1
9     4     5     1
10    4     38    1
11    4     39    1
12    5     14    1
13    5     6     1
14    6     7     1
15    6     40    1
16    6     41    1
17    7     8     1
18    7     42    1
19    7     43    1
20    8     9     am
21    8     13    1
22    9     10    1
23    9     11    2
24    9     12    2
25    10    44    1
26    10    45    1
27    10    46    1
28    13    14    1
29    13    47    1
30    13    48    1
31    14    49    1
32    14    50    1
33    15    16    1
34    16    34    ar
35    16    17    ar
36    17    18    1
37    17    24    ar
38    18    23    1
39    18    19    1
40    19    20    1
41    19    51    1
42    19    52    1
43    20    21    1
44    20    53    1
45    20    54    1
46    21    22    1
47    22    23    1
48    22    55    1
49    22    56    1
50    23    57    1
51    23    58    1
52    24    25    ar
53    25    26    1
54    25    33    ar
55    26    32    ar
56    26    27    ar
57    27    28    ar
58    27    59    1
59    28    29    ar
60    29    30    1
61    29    31    ar
62    30    60    1
63    30    61    1
64    31    32    ar
65    32    62    1
66    33    34    ar
@<TRIPOS>SUBSTRUCTURE
1   ZINC000043202843 1     RESIDUE    1   A     ZIN   1
