@<TRIPOS>MOLECULE
ZINC000003817160
60    63    1     0     0
SMALL
USER_CHARGES
@<TRIPOS>ATOM
1      C1      0.3729    1.6621    0.4332 C.3      1 ZINC000003817160   -0.1500
2      C2      0.3497    0.1352    0.5267 C.3      1 ZINC000003817160   -0.1200
3      C3      0.6419   -0.4646   -0.8502 C.3      1 ZINC000003817160   -0.0700
4      C4      0.6191   -1.9686   -0.7581 C.ar     1 ZINC000003817160   -0.0700
5      C5      1.7948   -2.6663   -0.5636 C.ar     1 ZINC000003817160   -0.1100
6      C6      1.7737   -4.0510   -0.4784 C.ar     1 ZINC000003817160    0.0900
7      O7      2.9312   -4.7381   -0.2864 O.3      1 ZINC000003817160   -0.2600
8      C8      2.8646   -6.0935   -0.2174 C.ar     1 ZINC000003817160    0.0800
9      C9      2.9877   -6.8550   -1.3708 C.ar     1 ZINC000003817160   -0.1300
10     C10     2.9195   -8.2327   -1.2979 C.ar     1 ZINC000003817160   -0.1100
11     C11     2.7283   -8.8531   -0.0770 C.ar     1 ZINC000003817160   -0.1200
12     C12     2.6053   -8.0966    1.0739 C.ar     1 ZINC000003817160   -0.1100
13     C13     2.6789   -6.7188    1.0074 C.ar     1 ZINC000003817160   -0.1300
14     C14     0.5717   -4.7343   -0.5886 C.ar     1 ZINC000003817160   -0.1600
15     C15    -0.6043   -4.0361   -0.7832 C.ar     1 ZINC000003817160   -0.1700
16     C16    -0.5837   -2.6517   -0.8631 C.ar     1 ZINC000003817160    0.1100
17     O17    -1.7414   -1.9646   -1.0542 O.3      1 ZINC000003817160   -0.3100
18     C18    -2.9413   -2.7328   -1.1640 C.3      1 ZINC000003817160    0.0600
19     C19    -4.1308   -1.7937   -1.3743 C.3      1 ZINC000003817160   -0.1200
20     C20    -5.4155   -2.6163   -1.4918 C.3      1 ZINC000003817160    0.0700
21     O21    -6.5264   -1.7391   -1.6882 O.3      1 ZINC000003817160   -0.3100
22     C22    -7.7516   -2.3137   -1.8128 C.ar     1 ZINC000003817160    0.1200
23     C23    -7.8827   -3.6927   -1.7417 C.ar     1 ZINC000003817160   -0.2100
24     C24    -9.1296   -4.2744   -1.8683 C.ar     1 ZINC000003817160   -0.0800
25     C25   -10.2458   -3.4833   -2.0661 C.ar     1 ZINC000003817160   -0.1300
26     C26   -10.1177   -2.1082   -2.1378 C.ar     1 ZINC000003817160    0.0000
27     C27   -11.3366   -1.2488   -2.3539 C.3      1 ZINC000003817160   -0.0700
28     H28   -11.0608   -0.1952   -2.3980 H        1 ZINC000003817160    0.1200
29     S29   -12.2180   -1.7490   -3.8713 S.3      1 ZINC000003817160   -0.3900
30     C30   -13.7088   -2.1890   -3.0187 C.2      1 ZINC000003817160    0.5800
31     O31   -14.7260   -2.6187   -3.5274 O.2      1 ZINC000003817160   -0.5100
32     N32   -13.5133   -1.9634   -1.7178 N.pl3    1 ZINC000003817160   -0.7200
33     C33   -12.3603   -1.4887   -1.2659 C.2      1 ZINC000003817160    0.5300
34     O34   -12.1479   -1.2725   -0.0920 O.2      1 ZINC000003817160   -0.5300
35     C35    -8.8743   -1.5214   -2.0057 C.ar     1 ZINC000003817160   -0.1400
36     H36     1.3556    1.9906    0.0950 H        1 ZINC000003817160    0.0500
37     H37    -0.3852    1.9943   -0.2761 H        1 ZINC000003817160    0.0600
38     H38     0.1647    2.0894    1.4141 H        1 ZINC000003817160    0.0500
39     H39     1.1078   -0.1970    1.2360 H        1 ZINC000003817160    0.0600
40     H40    -0.6331   -0.1933    0.8649 H        1 ZINC000003817160    0.0700
41     H41    -0.1162   -0.1324   -1.5595 H        1 ZINC000003817160    0.0800
42     H42     1.6247   -0.1361   -1.1884 H        1 ZINC000003817160    0.0700
43     H43     2.7308   -2.1342   -0.4782 H        1 ZINC000003817160    0.1400
44     H44     3.1363   -6.3710   -2.3248 H        1 ZINC000003817160    0.1300
45     H45     3.0153   -8.8259   -2.1953 H        1 ZINC000003817160    0.1300
46     H46     2.6746   -9.9303   -0.0223 H        1 ZINC000003817160    0.1300
47     H47     2.4557   -8.5835    2.0262 H        1 ZINC000003817160    0.1300
48     H48     2.5828   -6.1283    1.9066 H        1 ZINC000003817160    0.1300
49     H49     0.5552   -5.8122   -0.5226 H        1 ZINC000003817160    0.1300
50     H50    -1.5402   -4.5682   -0.8690 H        1 ZINC000003817160    0.1300
51     H51    -2.8610   -3.4129   -2.0120 H        1 ZINC000003817160    0.0700
52     H52    -3.0895   -3.3078   -0.2499 H        1 ZINC000003817160    0.0700
53     H53    -4.2111   -1.1136   -0.5262 H        1 ZINC000003817160    0.0900
54     H54    -3.9826   -1.2187   -2.2883 H        1 ZINC000003817160    0.0900
55     H55    -5.3351   -3.2963   -2.3398 H        1 ZINC000003817160    0.0600
56     H56    -5.5637   -3.1912   -0.5777 H        1 ZINC000003817160    0.0600
57     H57    -7.0109   -4.3113   -1.5880 H        1 ZINC000003817160    0.1200
58     H58    -9.2322   -5.3481   -1.8130 H        1 ZINC000003817160    0.1200
59     H59   -11.2196   -3.9399   -2.1651 H        1 ZINC000003817160    0.1200
60     H60    -8.7748   -0.4475   -2.0614 H        1 ZINC000003817160    0.1300
@<TRIPOS>BOND
1     1     2     1
2     1     36    1
3     1     37    1
4     1     38    1
5     2     3     1
6     2     39    1
7     2     40    1
8     3     4     1
9     3     41    1
10    3     42    1
11    4     16    ar
12    4     5     ar
13    5     6     ar
14    5     43    1
15    6     7     1
16    6     14    ar
17    7     8     1
18    8     13    ar
19    8     9     ar
20    9     10    ar
21    9     44    1
22    10    11    ar
23    10    45    1
24    11    12    ar
25    11    46    1
26    12    13    ar
27    12    47    1
28    13    48    1
29    14    15    ar
30    14    49    1
31    15    16    ar
32    15    50    1
33    16    17    1
34    17    18    1
35    18    19    1
36    18    51    1
37    18    52    1
38    19    20    1
39    19    53    1
40    19    54    1
41    20    21    1
42    20    55    1
43    20    56    1
44    21    22    1
45    22    35    ar
46    22    23    ar
47    23    24    ar
48    23    57    1
49    24    25    ar
50    24    58    1
51    25    26    ar
52    25    59    1
53    26    27    1
54    26    35    ar
55    27    28    1
56    27    33    1
57    27    29    1
58    29    30    1
59    30    31    2
60    30    32    1
61    32    33    1
62    33    34    2
63    35    60    1
@<TRIPOS>SUBSTRUCTURE
1   ZINC000003817160 1     RESIDUE    1   A     ZIN   1
