@<TRIPOS>MOLECULE
ZINC000008925785
  31   32    0    0    0
SMALL
USER_CHARGES
NO_NAME
@<TRIPOS>ATOM
    1 C1       -0.0187     1.5258     0.0104 C.3    1 <0>      -0.1500
    2 C2        0.0021    -0.0041     0.0020 C.3    1 <0>       0.0600
    3 O3        0.6817    -0.4723    -1.1926 O.3    1 <0>      -0.3500
    4 C4        0.7866    -1.8063    -1.3537 C.2    1 <0>       0.5200
    5 O5        0.3228    -2.5577    -0.5186 O.2    1 <0>      -0.4900
    6 C6        1.4631    -2.3533    -2.5412 C.ar   1 <0>      -0.2100
    7 C7        2.0071    -1.4913    -3.5085 C.ar   1 <0>       0.1800
    8 N8        2.6132    -1.9503    -4.5726 N.ar   1 <0>      -0.4700
    9 C9        2.7500    -3.2642    -4.8005 C.ar   1 <0>       0.1300
   10 C10       3.4068    -3.7260    -5.9530 C.ar   1 <0>      -0.0600
   11 C11       3.5389    -5.0626    -6.1726 C.ar   1 <0>      -0.1600
   12 C12       3.0294    -5.9945    -5.2650 C.ar   1 <0>       0.1300
   13 O13       3.1760    -7.3235    -5.5093 O.3    1 <0>      -0.3100
   14 C14       3.8592    -7.6911    -6.7093 C.3    1 <0>       0.0200
   15 C15       2.3802    -5.5770    -4.1245 C.ar   1 <0>      -0.1200
   16 C16       2.2320    -4.2044    -3.8776 C.ar   1 <0>      -0.1000
   17 C17       1.5762    -3.7379    -2.7159 C.ar   1 <0>       0.2400
   18 O18       1.0707    -4.6006    -1.8050 O.3    1 <0>      -0.4600
   19 H19       1.0039     1.9031     0.0027 H      1 <0>       0.0700
   20 H20      -0.5459     1.8868    -0.8726 H      1 <0>       0.0700
   21 H21      -0.5289     1.8773     0.9072 H      1 <0>       0.0800
   22 H22       0.5293    -0.3651     0.8851 H      1 <0>       0.0700
   23 H23      -1.0205    -0.3814     0.0098 H      1 <0>       0.0700
   24 H24       1.9224    -0.4236    -3.3699 H      1 <0>       0.1800
   25 H25       3.8070    -3.0199    -6.6656 H      1 <0>       0.1500
   26 H26       4.0449    -5.4081    -7.0620 H      1 <0>       0.1400
   27 H27       3.9069    -8.7776    -6.7820 H      1 <0>       0.1100
   28 H28       3.3219    -7.2926    -7.5699 H      1 <0>       0.0600
   29 H29       4.8699    -7.2834    -6.6914 H      1 <0>       0.0600
   30 H30       1.9883    -6.3011    -3.4255 H      1 <0>       0.1500
   31 H31       1.6939    -4.8460    -1.1075 H      1 <0>       0.4100
@<TRIPOS>BOND
   1    1    2 1
   2    1   19 1
   3    1   20 1
   4    1   21 1
   5    2    3 1
   6    2   22 1
   7    2   23 1
   8    3    4 1
   9    4    5 2
  10    4    6 1
  11    6   17 ar
  12    6    7 ar
  13    7    8 ar
  14    7   24 1
  15    8    9 ar
  16    9   16 ar
  17    9   10 ar
  18   10   11 ar
  19   10   25 1
  20   11   12 ar
  21   11   26 1
  22   12   13 1
  23   12   15 ar
  24   13   14 1
  25   14   27 1
  26   14   28 1
  27   14   29 1
  28   15   16 ar
  29   15   30 1
  30   16   17 ar
  31   17   18 1
  32   18   31 1
