@<TRIPOS>MOLECULE
ZINC000000002216
  24   25    0    0    0
SMALL
USER_CHARGES
NO_NAME
@<TRIPOS>ATOM
    1 O1       -2.3665    -0.8779     1.2954 O.3    1 <0>      -0.4800
    2 C2       -1.1958    -1.1343     0.6528 C.ar   1 <0>       0.1200
    3 C3       -1.2008    -1.8163    -0.5529 C.ar   1 <0>      -0.1300
    4 C4       -0.0086    -2.0760    -1.2057 C.ar   1 <0>      -0.0100
    5 Cl5      -0.0166    -2.9308    -2.7167 Cl     1 <0>      -0.0500
    6 C6        1.1894    -1.6555    -0.6568 C.ar   1 <0>      -0.1100
    7 C7        1.2005    -0.9743     0.5465 C.ar   1 <0>      -0.0900
    8 C8        0.0098    -0.7070     1.2024 C.ar   1 <0>       0.0500
    9 O9        0.0195    -0.0372     2.3859 O.3    1 <0>      -0.2400
   10 C10      -0.0743    -0.7635     3.5309 C.ar   1 <0>       0.1400
   11 C11      -0.0582    -2.1492     3.4777 C.ar   1 <0>      -0.1700
   12 C12      -0.1537    -2.8859     4.6429 C.ar   1 <0>      -0.0600
   13 C13      -0.2658    -2.2425     5.8625 C.ar   1 <0>      -0.0600
   14 Cl14     -0.3861    -3.1709     7.3244 Cl     1 <0>      -0.0500
   15 C15      -0.2817    -0.8598     5.9188 C.ar   1 <0>      -0.0700
   16 C16      -0.1807    -0.1189     4.7565 C.ar   1 <0>      -0.0500
   17 Cl17     -0.2006     1.6155     4.8272 Cl     1 <0>      -0.0400
   18 H18      -2.7771    -0.0390     1.0448 H      1 <0>       0.4000
   19 H19      -2.1351    -2.1455    -0.9833 H      1 <0>       0.1500
   20 H20       2.1180    -1.8599    -1.1690 H      1 <0>       0.1500
   21 H21       2.1372    -0.6474     0.9731 H      1 <0>       0.1500
   22 H22       0.0286    -2.6524     2.5260 H      1 <0>       0.1400
   23 H23      -0.1411    -3.9650     4.6014 H      1 <0>       0.1500
   24 H24      -0.3689    -0.3594     6.8719 H      1 <0>       0.1500
@<TRIPOS>BOND
   1    1    2 1
   2    1   18 1
   3    2    8 ar
   4    2    3 ar
   5    3    4 ar
   6    3   19 1
   7    4    5 1
   8    4    6 ar
   9    6    7 ar
  10    6   20 1
  11    7    8 ar
  12    7   21 1
  13    8    9 1
  14    9   10 1
  15   10   16 ar
  16   10   11 ar
  17   11   12 ar
  18   11   22 1
  19   12   13 ar
  20   12   23 1
  21   13   14 1
  22   13   15 ar
  23   15   16 ar
  24   15   24 1
  25   16   17 1
