@<TRIPOS>MOLECULE
ZINC000095616589
48    50    1     0     0
SMALL
USER_CHARGES
@<TRIPOS>ATOM
1      C1     -3.7264    1.9416    1.4443 C.3      1 ZINC000095616589   -0.1500
2      C2     -4.0271    0.4481    1.5847 C.3      1 ZINC000095616589    0.0800
3      O3     -3.2555   -0.2952    0.6046 O.3      1 ZINC000095616589   -0.3600
4      C4     -3.4062   -1.6331    0.5950 C.2      1 ZINC000095616589    0.6600
5      O5     -4.1617   -2.1651    1.3840 O.2      1 ZINC000095616589   -0.5300
6      N6     -2.7189   -2.3823   -0.2898 N.am     1 ZINC000095616589   -0.6500
7      C7     -2.7981   -3.7728   -0.2354 C.2      1 ZINC000095616589    0.2900
8      C8     -1.6692   -4.5261   -0.0702 C.2      1 ZINC000095616589   -0.1800
9      C9     -1.7613   -5.9297   -0.0167 C.2      1 ZINC000095616589    0.2200
10     C10    -0.5298   -6.7379    0.1633 C.ar     1 ZINC000095616589   -0.0300
11     C11     0.7076   -6.1082    0.2842 C.ar     1 ZINC000095616589   -0.0900
12     C12     1.8528   -6.8614    0.4512 C.ar     1 ZINC000095616589   -0.1000
13     C13     1.7771   -8.2401    0.4991 C.ar     1 ZINC000095616589   -0.0800
14     C14     3.0311   -9.0558    0.6811 C.3      1 ZINC000095616589   -0.1200
15     C15     0.5471   -8.8768    0.3804 C.ar     1 ZINC000095616589    0.1500
16     N16     0.4743  -10.2709    0.4298 N.am     1 ZINC000095616589   -1.0500
17     S17    -0.6333  -11.0757   -0.5018 S.o2     1 ZINC000095616589    2.6000
18     C18    -0.2092  -10.6188   -2.2053 C.3      1 ZINC000095616589   -0.6700
19     O19    -0.3541  -12.4496   -0.2698 O.2      1 ZINC000095616589   -0.9500
20     O20    -1.8821  -10.5089   -0.1297 O.2      1 ZINC000095616589   -0.9400
21     C21    -0.6082   -8.1270    0.2177 C.ar     1 ZINC000095616589   -0.1300
22     N22    -2.9247   -6.5346   -0.1238 N.2      1 ZINC000095616589   -0.2400
23     N23    -4.0976   -5.7966   -0.2934 N.pl3    1 ZINC000095616589   -0.2900
24     C24    -5.3998   -6.1279   -0.4295 C.2      1 ZINC000095616589    0.2200
25     C25    -5.9670   -7.5240   -0.4308 C.3      1 ZINC000095616589   -0.0700
26     N26    -6.0810   -5.0163   -0.5595 N.2      1 ZINC000095616589   -0.2600
27     N27    -5.2890   -4.0023   -0.5138 N.2      1 ZINC000095616589   -0.2200
28     C28    -4.0480   -4.4254   -0.3444 C.2      1 ZINC000095616589    0.1300
29     H29    -4.3056    2.4996    2.1800 H        1 ZINC000095616589    0.0900
30     H30    -2.6633    2.1155    1.6111 H        1 ZINC000095616589    0.0700
31     H31    -3.9959    2.2739    0.4418 H        1 ZINC000095616589    0.0700
32     H32    -3.7575    0.1158    2.5872 H        1 ZINC000095616589    0.0700
33     H33    -5.0901    0.2742    1.4179 H        1 ZINC000095616589    0.0800
34     H34    -2.1693   -1.9539   -0.9644 H        1 ZINC000095616589    0.4300
35     H35    -0.7067   -4.0443    0.0189 H        1 ZINC000095616589    0.1700
36     H36     0.7708   -5.0307    0.2468 H        1 ZINC000095616589    0.1400
37     H37     2.8107   -6.3712    0.5442 H        1 ZINC000095616589    0.1400
38     H38     3.2129   -9.2104    1.7447 H        1 ZINC000095616589    0.0800
39     H39     2.9114  -10.0210    0.1890 H        1 ZINC000095616589    0.0700
40     H40     3.8761   -8.5261    0.2414 H        1 ZINC000095616589    0.0800
41     H41     1.0725  -10.7676    1.0098 H        1 ZINC000095616589    0.4300
42     H42     0.8113  -10.9342   -2.4227 H        1 ZINC000095616589    0.1300
43     H43    -0.8959  -11.1097   -2.8948 H        1 ZINC000095616589    0.1400
44     H44    -0.2881   -9.5379   -2.3219 H        1 ZINC000095616589    0.1300
45     H45    -1.5649   -8.6195    0.1253 H        1 ZINC000095616589    0.1800
46     H46    -6.2224   -7.8134    0.5886 H        1 ZINC000095616589    0.0900
47     H47    -6.8626   -7.5518   -1.0516 H        1 ZINC000095616589    0.1000
48     H48    -5.2263   -8.2167   -0.8304 H        1 ZINC000095616589    0.0900
@<TRIPOS>BOND
1     1     2     1
2     1     29    1
3     1     30    1
4     1     31    1
5     2     3     1
6     2     32    1
7     2     33    1
8     3     4     1
9     4     5     2
10    4     6     am
11    6     7     1
12    6     34    1
13    7     28    1
14    7     8     2
15    8     9     1
16    8     35    1
17    9     10    1
18    9     22    2
19    10    21    ar
20    10    11    ar
21    11    12    ar
22    11    36    1
23    12    13    ar
24    12    37    1
25    13    14    1
26    13    15    ar
27    14    38    1
28    14    39    1
29    14    40    1
30    15    16    1
31    15    21    ar
32    16    17    am
33    16    41    1
34    17    18    1
35    17    19    2
36    17    20    2
37    18    42    1
38    18    43    1
39    18    44    1
40    21    45    1
41    22    23    1
42    23    28    1
43    23    24    1
44    24    25    1
45    24    26    2
46    25    46    1
47    25    47    1
48    25    48    1
49    26    27    1
50    27    28    2
@<TRIPOS>SUBSTRUCTURE
1   ZINC000095616589 1     RESIDUE    1   A     ZIN   1
