@<TRIPOS>MOLECULE
ZINC000013130928
40    43    1     0     0
SMALL
USER_CHARGES
@<TRIPOS>ATOM
1      C1     -0.0187    1.5258    0.0104 C.3      1 ZINC000013130928   -0.1700
2      C2      0.0021   -0.0041    0.0020 C.3      1 ZINC000013130928    0.1500
3      C3     -1.4351   -0.5283    0.0261 C.3      1 ZINC000013130928   -0.1300
4      C4      0.6844   -0.4847   -1.2515 C.2      1 ZINC000013130928   -0.2000
5      C5      2.0035   -0.6662   -1.2639 C.2      1 ZINC000013130928   -0.0800
6      C6      2.7545   -0.3956   -0.0195 C.ar     1 ZINC000013130928   -0.1600
7      C7      2.0415   -0.3071    1.1850 C.ar     1 ZINC000013130928    0.1400
8      C8      2.7127   -0.0554    2.3684 C.ar     1 ZINC000013130928   -0.1500
9      C9      4.0844    0.1090    2.3657 C.ar     1 ZINC000013130928   -0.0500
10     C10     4.8042    0.0241    1.1750 C.ar     1 ZINC000013130928   -0.0600
11     C11     6.2767    0.2028    1.1838 C.2      1 ZINC000013130928   -0.2500
12     C12     7.1103   -0.8603    1.0433 C.2      1 ZINC000013130928    0.1200
13     O13     8.4388   -0.7469    1.0278 O.3      1 ZINC000013130928   -0.2300
14     C14     9.0509    0.3710    1.4612 C.ar     1 ZINC000013130928    0.1800
15     C15    10.4108    0.3653    1.7453 C.ar     1 ZINC000013130928   -0.2900
16     C16    11.0287    1.5252    2.1804 C.ar     1 ZINC000013130928    0.3100
17     O17    12.3576    1.5152    2.4574 O.3      1 ZINC000013130928   -0.7000
18     C18    10.3009    2.7028    2.3365 C.ar     1 ZINC000013130928   -0.2600
19     C19     8.9620    2.7256    2.0656 C.ar     1 ZINC000013130928    0.0000
20     C20     8.3252    1.5636    1.6317 C.ar     1 ZINC000013130928   -0.3400
21     C21     6.8779    1.5414    1.3393 C.2      1 ZINC000013130928    0.4400
22     O22     6.2218    2.5637    1.2371 O.2      1 ZINC000013130928   -0.5000
23     C23     4.1377   -0.2296   -0.0275 C.ar     1 ZINC000013130928    0.1700
24     O24     4.8318   -0.3139   -1.1918 O.3      1 ZINC000013130928   -0.4800
25     O25     0.6936   -0.4721    1.1606 O.3      1 ZINC000013130928   -0.3100
26     H26     1.0039    1.9031    0.0027 H        1 ZINC000013130928    0.0600
27     H27    -0.5459    1.8868   -0.8726 H        1 ZINC000013130928    0.0700
28     H28    -0.5289    1.8773    0.9072 H        1 ZINC000013130928    0.0700
29     H29    -1.9690   -0.1654   -0.8522 H        1 ZINC000013130928    0.0800
30     H30    -1.4244   -1.6182    0.0201 H        1 ZINC000013130928    0.0700
31     H31    -1.9358   -0.1747    0.9274 H        1 ZINC000013130928    0.0700
32     H32     0.1038   -0.6824   -2.1404 H        1 ZINC000013130928    0.1300
33     H33     2.5100   -1.0018   -2.1568 H        1 ZINC000013130928    0.1300
34     H34     2.1634    0.0124    3.2958 H        1 ZINC000013130928    0.1400
35     H35     4.6028    0.3051    3.2926 H        1 ZINC000013130928    0.1400
36     H36     6.6767   -1.8439    0.9396 H        1 ZINC000013130928    0.1800
37     H37    10.9846   -0.5421    1.6273 H        1 ZINC000013130928    0.1100
38     H38    10.7969    3.6011    2.6733 H        1 ZINC000013130928    0.1100
39     H39     8.3994    3.6395    2.1867 H        1 ZINC000013130928    0.1100
40     H40     5.1374   -1.2065   -1.4037 H        1 ZINC000013130928    0.3900
@<TRIPOS>BOND
1     1     2     1
2     1     26    1
3     1     27    1
4     1     28    1
5     2     25    1
6     2     3     1
7     2     4     1
8     3     29    1
9     3     30    1
10    3     31    1
11    4     5     2
12    4     32    1
13    5     6     1
14    5     33    1
15    6     23    ar
16    6     7     ar
17    7     8     ar
18    7     25    1
19    8     9     ar
20    8     34    1
21    9     10    ar
22    9     35    1
23    10    11    1
24    10    23    ar
25    11    21    1
26    11    12    2
27    12    13    1
28    12    36    1
29    13    14    1
30    14    20    ar
31    14    15    ar
32    15    16    ar
33    15    37    1
34    16    17    1
35    16    18    ar
36    18    19    ar
37    18    38    1
38    19    20    ar
39    19    39    1
40    20    21    1
41    21    22    2
42    23    24    1
43    24    40    1
@<TRIPOS>SUBSTRUCTURE
1   ZINC000013130928 1     RESIDUE    1   A     ZIN   1
