@<TRIPOS>MOLECULE
ZINC000068207132
  47   49    0    0    0
SMALL
USER_CHARGES
NO_NAME
@<TRIPOS>ATOM
    1 C1       -0.0193     1.5183     0.0178 C.3    1 <0>      -0.1700
    2 C2        0.0015    -0.0114     0.0017 C.3    1 <0>       0.0500
    3 H3        0.5120    -0.3584    -0.8967 H      1 <0>       0.1300
    4 C4       -1.4339    -0.5411     0.0092 C.3    1 <0>      -0.0100
    5 N5       -1.4139    -2.0099    -0.0063 N.4    1 <0>      -0.3900
    6 H6       -0.8567    -2.3469     0.7644 H      1 <0>       0.4300
    7 C7       -2.7857    -2.5197     0.1216 C.3    1 <0>      -0.0500
    8 C8       -0.8335    -2.4784    -1.2719 C.3    1 <0>      -0.0600
    9 O9        0.6921    -0.4907     1.1572 O.3    1 <0>      -0.3000
   10 C10       2.0291    -0.6763     1.0417 C.ar   1 <0>       0.3500
   11 N11       2.6402    -0.4108    -0.1033 N.ar   1 <0>      -0.4900
   12 C12       3.9507    -0.5939    -0.2132 C.ar   1 <0>       0.4100
   13 N13       4.5900    -0.3154    -1.4118 N.pl3  1 <0>      -0.6200
   14 C14       3.8445     0.0496    -2.5305 C.ar   1 <0>       0.3500
   15 N15       2.5327     0.2354    -2.4052 N.ar   1 <0>      -0.4700
   16 C16       1.7662     0.5801    -3.4132 C.ar   1 <0>       0.1700
   17 C17       2.3207     0.7686    -4.6880 C.ar   1 <0>      -0.1300
   18 C18       1.5351     1.1383    -5.7931 C.ar   1 <0>      -0.0100
   19 Cl19     -0.1747     1.3768    -5.6097 Cl     1 <0>      -0.0600
   20 C20       2.1252     1.3087    -7.0097 C.ar   1 <0>      -0.1000
   21 C21       3.4962     1.1224    -7.1772 C.ar   1 <0>      -0.0800
   22 C22       4.2892     0.7641    -6.1295 C.ar   1 <0>      -0.1100
   23 C23       3.7177     0.5795    -4.8612 C.ar   1 <0>       0.0200
   24 C24       4.4843     0.2159    -3.7422 C.ar   1 <0>      -0.1800
   25 C25       4.6867    -1.0659     0.8760 C.ar   1 <0>       0.0000
   26 N26       4.0854    -1.3318     2.0157 N.ar   1 <0>      -0.3300
   27 C27       2.7717    -1.1450     2.1364 C.ar   1 <0>       0.0800
   28 C28       2.1169    -1.4342     3.3767 C.1    1 <0>       0.2700
   29 N29       1.5974    -1.6637     4.3605 N.1    1 <0>      -0.3700
   30 H30       1.0032     1.8957     0.0125 H      1 <0>       0.0800
   31 H31      -0.5462     1.8839    -0.8636 H      1 <0>       0.0800
   32 H32      -0.5299     1.8653     0.9162 H      1 <0>       0.0800
   33 H33      -1.9445    -0.1942     0.9076 H      1 <0>       0.1400
   34 H34      -1.9607    -0.1756    -0.8722 H      1 <0>       0.1500
   35 H35      -3.3877    -2.1557    -0.7110 H      1 <0>       0.1200
   36 H36      -2.7709    -3.6095     0.1100 H      1 <0>       0.1300
   37 H37      -3.2164    -2.1721     1.0606 H      1 <0>       0.1300
   38 H38       0.1844    -2.1001    -1.3668 H      1 <0>       0.1200
   39 H39      -0.8186    -3.5682    -1.2834 H      1 <0>       0.1300
   40 H40      -1.4355    -2.1143    -2.1045 H      1 <0>       0.1300
   41 H41       5.5564    -0.3748    -1.4712 H      1 <0>       0.4400
   42 H42       0.7060     0.7187    -3.2610 H      1 <0>       0.1600
   43 H43       1.5204     1.5924    -7.8582 H      1 <0>       0.1400
   44 H44       3.9365     1.2640    -8.1531 H      1 <0>       0.1400
   45 H45       5.3502     0.6231    -6.2737 H      1 <0>       0.1400
   46 H46       5.5504     0.0663    -3.8285 H      1 <0>       0.1500
   47 H47       5.7524    -1.2134     0.7823 H      1 <0>       0.1900
@<TRIPOS>BOND
   1    1    2 1
   2    1   30 1
   3    1   31 1
   4    1   32 1
   5    2    3 1
   6    2    4 1
   7    2    9 1
   8    4    5 1
   9    4   33 1
  10    4   34 1
  11    5    6 1
  12    5    7 1
  13    5    8 1
  14    7   35 1
  15    7   36 1
  16    7   37 1
  17    8   38 1
  18    8   39 1
  19    8   40 1
  20    9   10 1
  21   10   27 ar
  22   10   11 ar
  23   11   12 ar
  24   12   13 1
  25   12   25 ar
  26   13   14 1
  27   13   41 1
  28   14   24 ar
  29   14   15 ar
  30   15   16 ar
  31   16   17 ar
  32   16   42 1
  33   17   23 ar
  34   17   18 ar
  35   18   19 1
  36   18   20 ar
  37   20   21 ar
  38   20   43 1
  39   21   22 ar
  40   21   44 1
  41   22   23 ar
  42   22   45 1
  43   23   24 ar
  44   24   46 1
  45   25   26 ar
  46   25   47 1
  47   26   27 ar
  48   27   28 1
  49   28   29 3
