@<TRIPOS>MOLECULE
ZINC000003870645
  50   50    0    0    0
SMALL
USER_CHARGES
NO_NAME
@<TRIPOS>ATOM
    1 C1        0.9601     1.3661     0.6123 C.3    1 <0>      -0.1500
    2 C2        0.9867    -0.1628     0.5600 C.3    1 <0>      -0.1300
    3 C3        1.4515    -0.6177    -0.8249 C.3    1 <0>      -0.1200
    4 C4        1.4780    -2.1466    -0.8772 C.3    1 <0>      -0.1200
    5 C5        1.9429    -2.6015    -2.2621 C.3    1 <0>      -0.1000
    6 C6        1.9690    -4.1074    -2.3137 C.2    1 <0>      -0.1200
    7 C7        1.2918    -4.7547    -3.2650 C.2    1 <0>      -0.1600
    8 C8        1.3172    -6.2159    -3.3151 C.2    1 <0>      -0.0100
    9 C9        0.6304    -6.8723    -4.2798 C.2    1 <0>      -0.2200
   10 C10      -0.1810    -6.2874    -5.3520 C.2    1 <0>       0.4100
   11 O11      -0.3645    -5.0983    -5.5426 O.2    1 <0>      -0.4500
   12 C12      -0.7332    -7.3845    -6.1561 C.2    1 <0>      -0.2400
   13 C13      -0.3488    -8.5636    -5.6929 C.2    1 <0>      -0.0600
   14 C14       0.5392    -8.3689    -4.4892 C.3    1 <0>      -0.0300
   15 H15       0.0924    -8.8381    -3.6126 H      1 <0>       0.1000
   16 C16       1.9250    -8.9605    -4.7547 C.3    1 <0>      -0.0800
   17 C17       1.8159   -10.4581    -4.8825 C.2    1 <0>      -0.1800
   18 C18       2.3179   -11.0644    -5.9296 C.2    1 <0>      -0.1300
   19 C19       3.1607   -10.2949    -6.9138 C.3    1 <0>      -0.1100
   20 C20       4.5042   -11.0033    -7.0982 C.3    1 <0>      -0.0900
   21 C21       5.3598   -10.2221    -8.0975 C.3    1 <0>      -0.1800
   22 C22       6.6831   -10.9199    -8.2792 C.2    1 <0>       0.4900
   23 O23       6.9199   -11.9469    -7.6662 O.co2  1 <0>      -0.7000
   24 O24       7.5168   -10.4574    -9.0391 O.co2  1 <0>      -0.7100
   25 H25       1.9604     1.7536     0.4193 H      1 <0>       0.0500
   26 H26       0.2720     1.7436    -0.1441 H      1 <0>       0.0500
   27 H27       0.6290     1.6901     1.5989 H      1 <0>       0.0500
   28 H28       1.6747    -0.5404     1.3163 H      1 <0>       0.0600
   29 H29      -0.0137    -0.5504     0.7529 H      1 <0>       0.0600
   30 H30       0.7634    -0.2402    -1.5813 H      1 <0>       0.0600
   31 H31       2.4518    -0.2301    -1.0179 H      1 <0>       0.0600
   32 H32       2.1661    -2.5241    -0.1209 H      1 <0>       0.0600
   33 H33       0.4777    -2.5342    -0.6843 H      1 <0>       0.0600
   34 H34       1.2548    -2.2240    -3.0185 H      1 <0>       0.0700
   35 H35       2.9432    -2.2139    -2.4551 H      1 <0>       0.0800
   36 H36       2.5356    -4.6630    -1.5811 H      1 <0>       0.1100
   37 H37       0.7253    -4.1990    -3.9976 H      1 <0>       0.1400
   38 H38       1.8837    -6.7715    -2.5825 H      1 <0>       0.1300
   39 H39      -1.3719    -7.2472    -7.0161 H      1 <0>       0.1400
   40 H40      -0.6249    -9.5186    -6.1150 H      1 <0>       0.1500
   41 H41       2.3263    -8.5452    -5.6791 H      1 <0>       0.0800
   42 H42       2.5900    -8.7139    -3.9269 H      1 <0>       0.0700
   43 H43       1.3238   -11.0314    -4.1108 H      1 <0>       0.1100
   44 H44       2.1279   -12.1158    -6.0875 H      1 <0>       0.1100
   45 H45       2.6433   -10.2420    -7.8717 H      1 <0>       0.0600
   46 H46       3.3304    -9.2865    -6.5364 H      1 <0>       0.0700
   47 H47       5.0215   -11.0562    -6.1403 H      1 <0>       0.0600
   48 H48       4.3344   -12.0117    -7.4757 H      1 <0>       0.0600
   49 H49       4.8424   -10.1692    -9.0554 H      1 <0>       0.0600
   50 H50       5.5295    -9.2137    -7.7201 H      1 <0>       0.0500
@<TRIPOS>BOND
   1    1    2 1
   2    1   25 1
   3    1   26 1
   4    1   27 1
   5    2    3 1
   6    2   28 1
   7    2   29 1
   8    3    4 1
   9    3   30 1
  10    3   31 1
  11    4    5 1
  12    4   32 1
  13    4   33 1
  14    5    6 1
  15    5   34 1
  16    5   35 1
  17    6    7 2
  18    6   36 1
  19    7    8 1
  20    7   37 1
  21    8    9 2
  22    8   38 1
  23    9   14 1
  24    9   10 1
  25   10   11 2
  26   10   12 1
  27   12   13 2
  28   12   39 1
  29   13   14 1
  30   13   40 1
  31   14   15 1
  32   14   16 1
  33   16   17 1
  34   16   41 1
  35   16   42 1
  36   17   18 2
  37   17   43 1
  38   18   19 1
  39   18   44 1
  40   19   20 1
  41   19   45 1
  42   19   46 1
  43   20   21 1
  44   20   47 1
  45   20   48 1
  46   21   22 1
  47   21   49 1
  48   21   50 1
  49   22   23 ar
  50   22   24 ar
