@<TRIPOS>MOLECULE
ZINC000001587152
42    44    1     0     0
SMALL
USER_CHARGES
@<TRIPOS>ATOM
1      O1      0.0021   -0.0041    0.0020 O.2      1 ZINC000001587152   -0.5400
2      C2     -0.0144    1.2130    0.0087 C.2      1 ZINC000001587152    0.5500
3      C3      1.2421    1.9614    0.0007 C.2      1 ZINC000001587152   -0.2200
4      C4      2.4200    1.3025   -0.0141 C.2      1 ZINC000001587152   -0.0100
5      C5      3.6829    2.0548   -0.0221 C.ar     1 ZINC000001587152   -0.0900
6      C6      3.6668    3.4543   -0.0085 C.ar     1 ZINC000001587152   -0.0800
7      C7      4.8523    4.1541   -0.0157 C.ar     1 ZINC000001587152   -0.1500
8      C8      6.0641    3.4731   -0.0362 C.ar     1 ZINC000001587152    0.1200
9      O9      7.2302    4.1677   -0.0432 O.3      1 ZINC000001587152   -0.5000
10     C10     6.0856    2.0831   -0.0493 C.ar     1 ZINC000001587152   -0.1500
11     C11     4.9058    1.3739   -0.0374 C.ar     1 ZINC000001587152   -0.0800
12     N12    -1.1906    1.8709    0.0179 N.am     1 ZINC000001587152   -0.7300
13     C13    -2.4493    1.1213    0.0198 C.3      1 ZINC000001587152    0.1200
14     C14    -3.6256    2.0996    0.0307 C.3      1 ZINC000001587152   -0.0500
15     C15    -4.9203    1.3285    0.0326 C.2      1 ZINC000001587152   -0.1700
16     C16    -5.6564    1.0016   -1.0414 C.2      1 ZINC000001587152    0.0700
17     N17    -6.7646    0.3004   -0.6518 N.pl3    1 ZINC000001587152   -0.5900
18     C18    -6.7686    0.1550    0.7196 C.ar     1 ZINC000001587152    0.0900
19     C19    -7.6412   -0.4577    1.6123 C.ar     1 ZINC000001587152   -0.1100
20     C20    -7.3714   -0.4371    2.9627 C.ar     1 ZINC000001587152   -0.1200
21     C21    -6.2289    0.1934    3.4480 C.ar     1 ZINC000001587152    0.0800
22     O22    -5.9773    0.2040    4.7844 O.3      1 ZINC000001587152   -0.5000
23     C23    -5.3501    0.8075    2.5780 C.ar     1 ZINC000001587152   -0.1000
24     C24    -5.6107    0.7881    1.2063 C.ar     1 ZINC000001587152   -0.0800
25     H25     1.2274    3.0413    0.0067 H        1 ZINC000001587152    0.1300
26     H26     2.4347    0.2226   -0.0200 H        1 ZINC000001587152    0.1400
27     H27     2.7259    3.9843    0.0071 H        1 ZINC000001587152    0.1300
28     H28     4.8409    5.2340   -0.0056 H        1 ZINC000001587152    0.1300
29     H29     7.5784    4.3606    0.8381 H        1 ZINC000001587152    0.3900
30     H30     7.0297    1.5588   -0.0652 H        1 ZINC000001587152    0.1300
31     H31     4.9236    0.2941   -0.0472 H        1 ZINC000001587152    0.1300
32     H32    -1.2038    2.8408    0.0232 H        1 ZINC000001587152    0.4000
33     H33    -2.5028    0.4987   -0.8734 H        1 ZINC000001587152    0.0700
34     H34    -2.4943    0.4891    0.9065 H        1 ZINC000001587152    0.0700
35     H35    -3.5721    2.7221    0.9238 H        1 ZINC000001587152    0.0800
36     H36    -3.5806    2.7318   -0.8561 H        1 ZINC000001587152    0.0800
37     H37    -5.4105    1.2552   -2.0620 H        1 ZINC000001587152    0.1700
38     H38    -7.4459   -0.0431   -1.2507 H        1 ZINC000001587152    0.4200
39     H39    -8.5305   -0.9494    1.2467 H        1 ZINC000001587152    0.1300
40     H40    -8.0526   -0.9143    3.6516 H        1 ZINC000001587152    0.1300
41     H41    -5.4540   -0.5486    5.0921 H        1 ZINC000001587152    0.3900
42     H42    -4.4642    1.2963    2.9557 H        1 ZINC000001587152    0.1300
@<TRIPOS>BOND
1     1     2     2
2     2     3     1
3     2     12    am
4     3     4     2
5     3     25    1
6     4     5     1
7     4     26    1
8     5     11    ar
9     5     6     ar
10    6     7     ar
11    6     27    1
12    7     8     ar
13    7     28    1
14    8     9     1
15    8     10    ar
16    9     29    1
17    10    11    ar
18    10    30    1
19    11    31    1
20    12    13    1
21    12    32    1
22    13    14    1
23    13    33    1
24    13    34    1
25    14    15    1
26    14    35    1
27    14    36    1
28    15    24    1
29    15    16    2
30    16    17    1
31    16    37    1
32    17    18    1
33    17    38    1
34    18    24    ar
35    18    19    ar
36    19    20    ar
37    19    39    1
38    20    21    ar
39    20    40    1
40    21    22    1
41    21    23    ar
42    22    41    1
43    23    24    ar
44    23    42    1
@<TRIPOS>SUBSTRUCTURE
1   ZINC000001587152 1     RESIDUE    1   A     ZIN   1
