@<TRIPOS>MOLECULE
ZINC000008856160
39    42    1     0     0
SMALL
USER_CHARGES
@<TRIPOS>ATOM
1      N1      0.0175   -1.1399   -0.0042 N.1      1 ZINC000008856160   -0.3700
2      C2      0.0021   -0.0041    0.0020 C.1      1 ZINC000008856160    0.2400
3      C3     -0.0173    1.4278    0.0099 C.ar     1 ZINC000008856160   -0.0600
4      C4     -1.2458    2.1315    0.0314 C.ar     1 ZINC000008856160    0.1100
5      C5     -2.5313    1.4104    0.0461 C.2      1 ZINC000008856160   -0.1900
6      C6     -3.5481    1.6460    0.9032 C.2      1 ZINC000008856160   -0.0900
7      C7     -4.6519    0.8424    0.7216 C.2      1 ZINC000008856160   -0.1400
8      C8     -4.5490   -0.0464   -0.2731 C.2      1 ZINC000008856160   -0.2000
9      S9     -2.9819    0.1147   -1.0548 S.3      1 ZINC000008856160    0.1500
10     C10    -1.2063    3.5267    0.0387 C.ar     1 ZINC000008856160   -0.1600
11     C11     0.0282    4.1728    0.0248 C.ar     1 ZINC000008856160    0.2600
12     C12     0.0749    5.6469    0.0324 C.2      1 ZINC000008856160   -0.1800
13     C13     1.2011    6.3914    0.0152 C.2      1 ZINC000008856160   -0.0700
14     C14     0.9916    7.7527    0.0266 C.2      1 ZINC000008856160   -0.1400
15     C15    -0.2921    8.1288    0.0530 C.2      1 ZINC000008856160   -0.1900
16     S16    -1.3279    6.7076    0.0578 S.3      1 ZINC000008856160    0.1500
17     N17     1.1664    3.4820    0.0051 N.ar     1 ZINC000008856160   -0.4800
18     C18     1.1837    2.1599    0.0024 C.ar     1 ZINC000008856160    0.1700
19     S19     2.7254    1.3073   -0.0241 S.3      1 ZINC000008856160    0.0300
20     C20     3.8629    2.7151   -0.0399 C.3      1 ZINC000008856160   -0.1800
21     C21     5.2836    2.2128   -0.0637 C.2      1 ZINC000008856160    0.4400
22     O22     5.5054    1.0188   -0.0695 O.2      1 ZINC000008856160   -0.4300
23     C23     6.3569    3.1306   -0.0794 C.2      1 ZINC000008856160   -0.3100
24     C24     7.6878    2.7990   -0.1069 C.2      1 ZINC000008856160   -0.0300
25     C25     8.5179    3.8914   -0.1169 C.2      1 ZINC000008856160   -0.1600
26     C26     7.8968    5.0788   -0.0982 C.2      1 ZINC000008856160   -0.2200
27     S27     6.2022    4.8821   -0.0742 S.3      1 ZINC000008856160    0.2300
28     H28    -3.4994    2.4043    1.6706 H        1 ZINC000008856160    0.1500
29     H29    -5.5355    0.9235    1.3372 H        1 ZINC000008856160    0.1500
30     H30    -5.3145   -0.7538   -0.5559 H        1 ZINC000008856160    0.1700
31     H31    -2.1221    4.0989    0.0546 H        1 ZINC000008856160    0.1500
32     H32     2.1884    5.9541   -0.0056 H        1 ZINC000008856160    0.1500
33     H33     1.8039    8.4644    0.0155 H        1 ZINC000008856160    0.1500
34     H34    -0.6399    9.1512    0.0652 H        1 ZINC000008856160    0.1700
35     H35     3.6773    3.3223   -0.9258 H        1 ZINC000008856160    0.1300
36     H36     3.7061    3.3190    0.8539 H        1 ZINC000008856160    0.1300
37     H37     8.0462    1.7803   -0.1192 H        1 ZINC000008856160    0.1600
38     H38     9.5939    3.8009   -0.1378 H        1 ZINC000008856160    0.1500
39     H39     8.4018    6.0334   -0.1027 H        1 ZINC000008856160    0.1700
@<TRIPOS>BOND
1     1     2     3
2     2     3     1
3     3     18    ar
4     3     4     ar
5     4     5     1
6     4     10    ar
7     5     9     1
8     5     6     2
9     6     7     1
10    6     28    1
11    7     8     2
12    7     29    1
13    8     9     1
14    8     30    1
15    10    11    ar
16    10    31    1
17    11    12    1
18    11    17    ar
19    12    16    1
20    12    13    2
21    13    14    1
22    13    32    1
23    14    15    2
24    14    33    1
25    15    16    1
26    15    34    1
27    17    18    ar
28    18    19    1
29    19    20    1
30    20    21    1
31    20    35    1
32    20    36    1
33    21    22    2
34    21    23    1
35    23    27    1
36    23    24    2
37    24    25    1
38    24    37    1
39    25    26    2
40    25    38    1
41    26    27    1
42    26    39    1
@<TRIPOS>SUBSTRUCTURE
1   ZINC000008856160 1     RESIDUE    1   A     ZIN   1
