@<TRIPOS>MOLECULE
ZINC000000342245
  21   22    0    0    0
SMALL
USER_CHARGES
NO_NAME
@<TRIPOS>ATOM
    1 C1       -0.0178     1.4608     0.0101 C.3    1 <0>       0.0700
    2 N2        0.0021    -0.0041     0.0020 N.pl3  1 <0>      -0.2400
    3 N3        0.0057    -0.6513    -1.1143 N.2    1 <0>      -0.2100
    4 C4        0.0237    -1.9608    -1.1664 C.2    1 <0>       0.2000
    5 N5        0.0390    -2.7098    -0.0708 N.2    1 <0>      -0.3400
    6 C6        0.0365    -2.1218     1.1082 C.2    1 <0>       0.0800
    7 C7        0.0521    -2.8715     2.3792 C.2    1 <0>       0.5800
    8 O8        0.0691    -4.0872     2.3976 O.2    1 <0>      -0.4500
    9 N9        0.0471    -2.1482     3.5244 N.am   1 <0>      -0.5800
   10 C10       0.0625    -2.8366     4.8175 C.3    1 <0>       0.0700
   11 C11       0.0287    -0.8063     3.4856 C.2    1 <0>       0.6800
   12 O12       0.0249    -0.1981     4.5422 O.2    1 <0>      -0.5000
   13 N13       0.0148    -0.1061     2.3564 N.2    1 <0>      -0.5900
   14 C14       0.0226    -0.6992     1.1713 C.2    1 <0>       0.3700
   15 H15       1.0048     1.8381     0.0023 H      1 <0>       0.1000
   16 H16      -0.5450     1.8219    -0.8730 H      1 <0>       0.1100
   17 H17      -0.5280     1.8123     0.9069 H      1 <0>       0.1200
   18 H18       0.0259    -2.4457    -2.1314 H      1 <0>       0.2400
   19 H19       1.0939    -2.9931     5.1336 H      1 <0>       0.0800
   20 H20      -0.4565    -2.2290     5.5588 H      1 <0>       0.1000
   21 H21      -0.4384    -3.8000     4.7222 H      1 <0>       0.0900
@<TRIPOS>BOND
   1    1    2 1
   2    1   15 1
   3    1   16 1
   4    1   17 1
   5    2   14 1
   6    2    3 1
   7    3    4 2
   8    4    5 1
   9    4   18 1
  10    5    6 2
  11    6   14 1
  12    6    7 1
  13    7    8 2
  14    7    9 am
  15    9   10 1
  16    9   11 am
  17   10   19 1
  18   10   20 1
  19   10   21 1
  20   11   12 2
  21   11   13 1
  22   13   14 2
