@<TRIPOS>MOLECULE
ZINC000063539231
70    74    1     0     0
SMALL
USER_CHARGES
@<TRIPOS>ATOM
1      C1      0.1303    1.0083    0.0300 C.2      1 ZINC000063539231   -0.1600
2      C2      0.1374   -0.2994   -0.0468 C.2      1 ZINC000063539231   -0.1800
3      C3     -1.1627   -1.0615   -0.0440 C.3      1 ZINC000063539231    0.1600
4      N4     -1.2255   -1.9243   -1.2262 N.am     1 ZINC000063539231   -0.3900
5      C5     -1.7289   -1.5671   -2.4261 C.2      1 ZINC000063539231    0.5800
6      O6     -2.2053   -0.4865   -2.7176 O.2      1 ZINC000063539231   -0.5000
7      C7     -1.5922   -2.7288   -3.3138 C.ar     1 ZINC000063539231   -0.3600
8      C8     -1.9169   -2.9875   -4.6426 C.ar     1 ZINC000063539231    0.3000
9      N9     -1.6467   -4.1831   -5.1405 N.ar     1 ZINC000063539231   -0.5800
10     C10    -1.0777   -5.1229   -4.3951 C.ar     1 ZINC000063539231    0.6200
11     N11    -0.8158   -6.3541   -4.9614 N.pl3    1 ZINC000063539231   -0.6300
12     C12    -1.0391   -6.5576   -6.3292 C.ar     1 ZINC000063539231    0.1600
13     C13    -0.8108   -5.5265   -7.2310 C.ar     1 ZINC000063539231   -0.0800
14     C14    -1.0309   -5.7271   -8.5792 C.ar     1 ZINC000063539231   -0.1000
15     C15    -1.4806   -6.9600   -9.0335 C.ar     1 ZINC000063539231    0.0700
16     N16    -1.7033   -7.1635  -10.3999 N.3      1 ZINC000063539231   -0.4800
17     C17    -2.6524   -6.1753  -10.9318 C.3      1 ZINC000063539231    0.0200
18     C18    -2.8224   -6.3944  -12.4367 C.3      1 ZINC000063539231    0.0000
19     N19    -3.3180   -7.7554  -12.6807 N.4      1 ZINC000063539231   -0.3900
20     H20    -4.2021   -7.8805  -12.2108 H        1 ZINC000063539231    0.4200
21     C21    -3.4978   -7.9593  -14.1243 C.3      1 ZINC000063539231   -0.0500
22     C22    -2.3481   -8.7311  -12.1661 C.3      1 ZINC000063539231    0.0000
23     C23    -2.1741   -8.5315  -10.6589 C.3      1 ZINC000063539231    0.0200
24     C24    -1.7089   -7.9911   -8.1316 C.ar     1 ZINC000063539231   -0.1400
25     C25    -1.4834   -7.7922   -6.7840 C.ar     1 ZINC000063539231   -0.1200
26     N26    -0.7516   -4.9202   -3.1253 N.ar     1 ZINC000063539231   -0.5900
27     C27    -0.9879   -3.7509   -2.5493 C.ar     1 ZINC000063539231    0.4700
28     N28    -0.7674   -3.2446   -1.2883 N.pl3    1 ZINC000063539231   -0.3000
29     C29    -0.1805   -3.9408   -0.2351 C.ar     1 ZINC000063539231    0.3600
30     C30     0.1363   -5.2859   -0.3901 C.ar     1 ZINC000063539231   -0.1800
31     C31     0.7192   -5.9658    0.6646 C.ar     1 ZINC000063539231   -0.0400
32     C32     0.9662   -5.2745    1.8428 C.ar     1 ZINC000063539231   -0.1600
33     C33     0.6257   -3.9388    1.9272 C.ar     1 ZINC000063539231    0.1300
34     C34     0.8917   -3.1826    3.2032 C.3      1 ZINC000063539231    0.1800
35     C35     0.4283   -1.7332    3.0433 C.3      1 ZINC000063539231   -0.1700
36     C36     0.1262   -3.8387    4.3540 C.3      1 ZINC000063539231   -0.1400
37     O37     2.2919   -3.2062    3.4879 O.3      1 ZINC000063539231   -0.5500
38     N38     0.0758   -3.3149    0.9031 N.ar     1 ZINC000063539231   -0.5000
39     H39     1.0621    1.5544    0.0280 H        1 ZINC000063539231    0.1000
40     H40    -0.8074    1.5406    0.0907 H        1 ZINC000063539231    0.1000
41     H41     1.0750   -0.8314   -0.1120 H        1 ZINC000063539231    0.1100
42     H42    -1.2233   -1.6733    0.8560 H        1 ZINC000063539231    0.1200
43     H43    -1.9958   -0.3588   -0.0623 H        1 ZINC000063539231    0.1100
44     H44    -2.3802   -2.2277   -5.2545 H        1 ZINC000063539231    0.1900
45     H45    -0.4770   -7.0783   -4.4122 H        1 ZINC000063539231    0.4300
46     H46    -0.4614   -4.5676   -6.8777 H        1 ZINC000063539231    0.1400
47     H47    -0.8537   -4.9251   -9.2805 H        1 ZINC000063539231    0.1300
48     H48    -3.6160   -6.2930  -10.4360 H        1 ZINC000063539231    0.0700
49     H49    -2.2705   -5.1705  -10.7514 H        1 ZINC000063539231    0.1300
50     H50    -3.5368   -5.6716  -12.8307 H        1 ZINC000063539231    0.1400
51     H51    -1.8613   -6.2632  -12.9338 H        1 ZINC000063539231    0.1400
52     H52    -2.5430   -7.8238  -14.6321 H        1 ZINC000063539231    0.1200
53     H53    -3.8656   -8.9693  -14.3055 H        1 ZINC000063539231    0.1200
54     H54    -4.2184   -7.2362  -14.5064 H        1 ZINC000063539231    0.1200
55     H55    -2.7108   -9.7406  -12.3594 H        1 ZINC000063539231    0.1400
56     H56    -1.3893   -8.5879  -12.6646 H        1 ZINC000063539231    0.1400
57     H57    -1.4433   -9.2456  -10.2794 H        1 ZINC000063539231    0.1300
58     H58    -3.1298   -8.6880  -10.1586 H        1 ZINC000063539231    0.0700
59     H59    -2.0590   -8.9498   -8.4847 H        1 ZINC000063539231    0.1300
60     H60    -1.6609   -8.5940   -6.0826 H        1 ZINC000063539231    0.1300
61     H61    -0.0702   -5.7931   -1.3210 H        1 ZINC000063539231    0.1700
62     H62     0.9759   -7.0109    0.5735 H        1 ZINC000063539231    0.1500
63     H63     1.4197   -5.7761    2.6849 H        1 ZINC000063539231    0.1500
64     H64    -0.6397   -1.7152    2.8261 H        1 ZINC000063539231    0.0700
65     H65     0.6207   -1.1863    3.9662 H        1 ZINC000063539231    0.0700
66     H66     0.9737   -1.2658    2.2234 H        1 ZINC000063539231    0.0700
67     H67     0.4564   -4.8713    4.4680 H        1 ZINC000063539231    0.0700
68     H68     0.3186   -3.2918    5.2770 H        1 ZINC000063539231    0.0800
69     H69    -0.9418   -3.8207    4.1369 H        1 ZINC000063539231    0.0700
70     H70     2.8401   -2.8057    2.7993 H        1 ZINC000063539231    0.3800
@<TRIPOS>BOND
1     1     2     2
2     1     39    1
3     1     40    1
4     2     3     1
5     2     41    1
6     3     4     1
7     3     42    1
8     3     43    1
9     4     28    1
10    4     5     am
11    5     6     2
12    5     7     1
13    7     27    ar
14    7     8     ar
15    8     9     ar
16    8     44    1
17    9     10    ar
18    10    11    1
19    10    26    ar
20    11    12    1
21    11    45    1
22    12    25    ar
23    12    13    ar
24    13    14    ar
25    13    46    1
26    14    15    ar
27    14    47    1
28    15    16    1
29    15    24    ar
30    16    23    1
31    16    17    1
32    17    18    1
33    17    48    1
34    17    49    1
35    18    19    1
36    18    50    1
37    18    51    1
38    19    20    1
39    19    21    1
40    19    22    1
41    21    52    1
42    21    53    1
43    21    54    1
44    22    23    1
45    22    55    1
46    22    56    1
47    23    57    1
48    23    58    1
49    24    25    ar
50    24    59    1
51    25    60    1
52    26    27    ar
53    27    28    1
54    28    29    1
55    29    38    ar
56    29    30    ar
57    30    31    ar
58    30    61    1
59    31    32    ar
60    31    62    1
61    32    33    ar
62    32    63    1
63    33    34    1
64    33    38    ar
65    34    35    1
66    34    36    1
67    34    37    1
68    35    64    1
69    35    65    1
70    35    66    1
71    36    67    1
72    36    68    1
73    36    69    1
74    37    70    1
@<TRIPOS>SUBSTRUCTURE
1   ZINC000063539231 1     RESIDUE    1   A     ZIN   1
