@<TRIPOS>MOLECULE
ZINC000029136248
  35   38    0    0    0
SMALL
USER_CHARGES
NO_NAME
@<TRIPOS>ATOM
    1 C1       -0.0187     1.5258     0.0104 C.3    1 <0>      -0.1500
    2 C2        0.0021    -0.0041     0.0020 C.3    1 <0>       0.0600
    3 O3        0.7043    -0.4851     1.1784 O.3    1 <0>      -0.3600
    4 C4        0.8123    -1.8215     1.3232 C.2    1 <0>       0.5300
    5 O5        0.3323    -2.5641     0.4887 O.2    1 <0>      -0.4900
    6 C6        1.5094    -2.3797     2.4885 C.2    1 <0>       0.0300
    7 C7        1.6881    -3.7046     2.7422 C.2    1 <0>      -0.0900
    8 C8        2.4041    -3.8183     3.9566 C.ar   1 <0>      -0.0900
    9 C9        2.6441    -2.5117     4.4153 C.ar   1 <0>       0.1100
   10 N10       2.0944    -1.6444     3.5008 N.pl3  1 <0>      -0.5600
   11 C11       3.3440    -2.3173     5.6128 C.ar   1 <0>       0.1300
   12 C12       3.7917    -3.4298     6.3311 C.ar   1 <0>      -0.0700
   13 C13       3.5444    -4.7267     5.8597 C.ar   1 <0>      -0.0900
   14 C14       2.8650    -4.9208     4.6991 C.ar   1 <0>      -0.0800
   15 C15       4.4814    -2.9068     7.5239 C.ar   1 <0>      -0.0900
   16 C16       4.4047    -1.5080     7.4476 C.ar   1 <0>       0.1400
   17 N17       3.7192    -1.1734     6.2951 N.pl3  1 <0>      -0.6000
   18 C18       4.9799    -0.7372     8.4553 C.ar   1 <0>      -0.0600
   19 Cl19      4.8947     0.9951     8.3787 Cl     1 <0>      -0.0700
   20 C20       5.6164    -1.3500     9.5137 C.ar   1 <0>      -0.0700
   21 C21       5.6913    -2.7331     9.5868 C.ar   1 <0>      -0.1400
   22 C22       5.1283    -3.5124     8.6002 C.ar   1 <0>      -0.0500
   23 H23       1.0039     1.9031     0.0027 H      1 <0>       0.0700
   24 H24      -0.5459     1.8868    -0.8726 H      1 <0>       0.0800
   25 H25      -0.5289     1.8773     0.9072 H      1 <0>       0.0700
   26 H26      -1.0205    -0.3814     0.0098 H      1 <0>       0.0800
   27 H27       0.5123    -0.3556    -0.8948 H      1 <0>       0.0800
   28 H28       1.3444    -4.5228     2.1267 H      1 <0>       0.1700
   29 H29       2.1091    -0.6764     3.5603 H      1 <0>       0.4200
   30 H30       3.8959    -5.5780     6.4237 H      1 <0>       0.1300
   31 H31       2.6798    -5.9241     4.3448 H      1 <0>       0.1400
   32 H32       3.5290    -0.2673     6.0058 H      1 <0>       0.4200
   33 H33       6.0607    -0.7479    10.2925 H      1 <0>       0.1400
   34 H34       6.1933    -3.2011    10.4207 H      1 <0>       0.1400
   35 H35       5.1884    -4.5891     8.6600 H      1 <0>       0.1400
@<TRIPOS>BOND
   1    1    2 1
   2    1   23 1
   3    1   24 1
   4    1   25 1
   5    2    3 1
   6    2   26 1
   7    2   27 1
   8    3    4 1
   9    4    5 2
  10    4    6 1
  11    6   10 1
  12    6    7 2
  13    7    8 1
  14    7   28 1
  15    8   14 ar
  16    8    9 ar
  17    9   10 1
  18    9   11 ar
  19   10   29 1
  20   11   17 1
  21   11   12 ar
  22   12   13 ar
  23   12   15 1
  24   13   14 ar
  25   13   30 1
  26   14   31 1
  27   15   22 ar
  28   15   16 ar
  29   16   17 1
  30   16   18 ar
  31   17   32 1
  32   18   19 1
  33   18   20 ar
  34   20   21 ar
  35   20   33 1
  36   21   22 ar
  37   21   34 1
  38   22   35 1
