@<TRIPOS>MOLECULE
ZINC000035943170
46    50    1     0     0
SMALL
USER_CHARGES
@<TRIPOS>ATOM
1      C1     -1.1016    1.8395    1.9353 C.3      1 ZINC000035943170   -0.1500
2      C2     -0.2456    1.0605    0.9346 C.3      1 ZINC000035943170    0.2000
3      H3      0.3523    1.7578    0.3478 H        1 ZINC000035943170    0.1200
4      N4     -1.1163    0.2921    0.0415 N.pl3    1 ZINC000035943170   -0.7000
5      C5     -1.6534    0.8911   -1.0866 C.ar     1 ZINC000035943170    0.4900
6      C6     -2.4895    0.1752   -1.9451 C.ar     1 ZINC000035943170   -0.1200
7      N7     -2.9837   -1.1116   -1.9838 N.pl3    1 ZINC000035943170   -0.5800
8      C8     -3.7584   -1.2086   -3.0877 C.2      1 ZINC000035943170    0.3000
9      N9     -3.7728   -0.0720   -3.7266 N.2      1 ZINC000035943170   -0.4900
10     C10    -3.0100    0.8264   -3.0757 C.ar     1 ZINC000035943170    0.3200
11     N11    -2.6846    2.1059   -3.2850 N.ar     1 ZINC000035943170   -0.5200
12     C12    -1.8933    2.7400   -2.4482 C.ar     1 ZINC000035943170    0.3500
13     N13    -1.3883    2.1632   -1.3729 N.ar     1 ZINC000035943170   -0.5700
14     C14     0.6663    0.1197    1.6791 C.2      1 ZINC000035943170    0.3900
15     N15     0.1369   -0.7123    2.5233 N.2      1 ZINC000035943170   -0.5000
16     C16     0.8952   -1.5885    3.2292 C.ar     1 ZINC000035943170    0.1400
17     C17     0.3252   -2.4834    4.1366 C.ar     1 ZINC000035943170   -0.0700
18     C18     1.1312   -3.3563    4.8324 C.ar     1 ZINC000035943170   -0.1000
19     C19     2.5087   -3.3582    4.6431 C.ar     1 ZINC000035943170    0.0900
20     F20     3.2794   -4.2237    5.3375 F        1 ZINC000035943170   -0.1300
21     C21     3.0946   -2.4831    3.7512 C.ar     1 ZINC000035943170   -0.0800
22     C22     2.2951   -1.5926    3.0382 C.ar     1 ZINC000035943170   -0.1600
23     C23     2.8633   -0.6384    2.0748 C.2      1 ZINC000035943170    0.5500
24     O24     4.0613   -0.5909    1.8636 O.2      1 ZINC000035943170   -0.4800
25     N25     2.0025    0.1817    1.4281 N.am     1 ZINC000035943170   -0.4900
26     C26     2.4921    1.1090    0.4996 C.ar     1 ZINC000035943170    0.0900
27     C27     2.5913    0.7643   -0.8419 C.ar     1 ZINC000035943170   -0.0900
28     C28     3.0740    1.6811   -1.7551 C.ar     1 ZINC000035943170   -0.1000
29     C29     3.4588    2.9410   -1.3347 C.ar     1 ZINC000035943170   -0.0900
30     C30     3.3617    3.2872    0.0006 C.ar     1 ZINC000035943170   -0.1000
31     C31     2.8739    2.3769    0.9177 C.ar     1 ZINC000035943170   -0.1000
32     H32    -0.4548    2.3251    2.6661 H        1 ZINC000035943170    0.0700
33     H33    -1.6827    2.5946    1.4059 H        1 ZINC000035943170    0.0800
34     H34    -1.7771    1.1538    2.4468 H        1 ZINC000035943170    0.0700
35     H35    -1.3167   -0.6360    0.2398 H        1 ZINC000035943170    0.4100
36     H36    -2.8081   -1.8155   -1.3399 H        1 ZINC000035943170    0.4300
37     H37    -4.2882   -2.0980   -3.3954 H        1 ZINC000035943170    0.2300
38     H38    -1.6497    3.7734   -2.6459 H        1 ZINC000035943170    0.2100
39     H39    -0.7435   -2.4907    4.2925 H        1 ZINC000035943170    0.1500
40     H40     0.6881   -4.0478    5.5338 H        1 ZINC000035943170    0.1500
41     H41     4.1650   -2.4887    3.6070 H        1 ZINC000035943170    0.1500
42     H42     2.2916   -0.2198   -1.1707 H        1 ZINC000035943170    0.1200
43     H43     3.1514    1.4135   -2.7986 H        1 ZINC000035943170    0.1300
44     H44     3.8363    3.6560   -2.0506 H        1 ZINC000035943170    0.1300
45     H45     3.6633    4.2719    0.3259 H        1 ZINC000035943170    0.1400
46     H46     2.7983    2.6479    1.9605 H        1 ZINC000035943170    0.1300
@<TRIPOS>BOND
1     1     2     1
2     1     32    1
3     1     33    1
4     1     34    1
5     2     3     1
6     2     4     1
7     2     14    1
8     4     5     1
9     4     35    1
10    5     13    ar
11    5     6     ar
12    6     10    ar
13    6     7     1
14    7     8     1
15    7     36    1
16    8     9     2
17    8     37    1
18    9     10    1
19    10    11    ar
20    11    12    ar
21    12    13    ar
22    12    38    1
23    14    25    1
24    14    15    2
25    15    16    1
26    16    22    ar
27    16    17    ar
28    17    18    ar
29    17    39    1
30    18    19    ar
31    18    40    1
32    19    20    1
33    19    21    ar
34    21    22    ar
35    21    41    1
36    22    23    1
37    23    24    2
38    23    25    am
39    25    26    1
40    26    31    ar
41    26    27    ar
42    27    28    ar
43    27    42    1
44    28    29    ar
45    28    43    1
46    29    30    ar
47    29    44    1
48    30    31    ar
49    30    45    1
50    31    46    1
@<TRIPOS>SUBSTRUCTURE
1   ZINC000035943170 1     RESIDUE    1   A     ZIN   1
