@<TRIPOS>MOLECULE
ZINC000029042448
57    60    1     0     0
SMALL
USER_CHARGES
@<TRIPOS>ATOM
1      C1      2.6355   -4.4936    2.9691 C.3      1 ZINC000029042448    0.0200
2      O2      1.7722   -3.9456    1.9708 O.3      1 ZINC000029042448   -0.3100
3      C3      1.5166   -2.6116    2.0403 C.ar     1 ZINC000029042448    0.1200
4      C4      2.0884   -1.8467    3.0429 C.ar     1 ZINC000029042448   -0.1900
5      C5      1.8280   -0.4899    3.1121 C.ar     1 ZINC000029042448   -0.1000
6      C6      0.9970    0.1064    2.1825 C.ar     1 ZINC000029042448   -0.1300
7      C7      0.4221   -0.6504    1.1782 C.ar     1 ZINC000029042448   -0.1300
8      C8      0.6832   -2.0101    1.0992 C.ar     1 ZINC000029042448    0.0800
9      N9      0.1029   -2.7782    0.0832 N.3      1 ZINC000029042448   -0.4800
10     C10    -0.5450   -1.9216   -0.9198 C.3      1 ZINC000029042448    0.0500
11     C11    -1.0965   -2.7927   -2.0510 C.3      1 ZINC000029042448    0.0600
12     N12    -2.0500   -3.7642   -1.4973 N.3      1 ZINC000029042448   -0.5400
13     C13    -2.6592   -4.5704   -2.5636 C.3      1 ZINC000029042448    0.0600
14     C14    -3.8161   -5.3886   -1.9867 C.3      1 ZINC000029042448   -0.1300
15     C15    -4.4505   -6.2283   -3.0972 C.3      1 ZINC000029042448    0.1200
16     N16    -5.5583   -7.0118   -2.5448 N.am     1 ZINC000029042448   -0.7100
17     C17    -6.2692   -7.8309   -3.3449 C.2      1 ZINC000029042448    0.6200
18     O18    -5.9913   -7.9195   -4.5243 O.2      1 ZINC000029042448   -0.4700
19     C19    -7.3904   -8.6239   -2.7858 C.2      1 ZINC000029042448    0.1500
20     N20    -8.1620   -9.4627   -3.4446 N.2      1 ZINC000029042448   -0.4100
21     C21    -9.0322   -9.9452   -2.5346 C.2      1 ZINC000029042448    0.2200
22     C22   -10.1123  -10.9317   -2.7877 C.ar     1 ZINC000029042448   -0.0800
23     C23   -10.9527  -11.3456   -1.7512 C.ar     1 ZINC000029042448   -0.0400
24     C24   -11.9452  -12.2672   -2.0388 C.ar     1 ZINC000029042448   -0.1700
25     C25   -12.0717  -12.7440   -3.3305 C.ar     1 ZINC000029042448    0.1200
26     N26   -11.2628  -12.3343   -4.2887 N.ar     1 ZINC000029042448   -0.4800
27     C27   -10.3079  -11.4553   -4.0637 C.ar     1 ZINC000029042448    0.1500
28     N28    -8.7488   -9.3832   -1.3870 N.2      1 ZINC000029042448   -0.3500
29     O29    -7.8081   -8.6277   -1.5108 O.3      1 ZINC000029042448    0.1100
30     C30    -1.4021   -4.6208   -0.4943 C.3      1 ZINC000029042448    0.0500
31     C31    -0.8507   -3.7497    0.6369 C.3      1 ZINC000029042448    0.0600
32     H32     2.2008   -4.3297    3.9551 H        1 ZINC000029042448    0.0500
33     H33     2.7554   -5.5635    2.7982 H        1 ZINC000029042448    0.1000
34     H34     3.6087   -4.0058    2.9154 H        1 ZINC000029042448    0.0500
35     H35     2.7376   -2.3096    3.7714 H        1 ZINC000029042448    0.1300
36     H36     2.2749    0.1050    3.8949 H        1 ZINC000029042448    0.1200
37     H37     0.7960    1.1659    2.2409 H        1 ZINC000029042448    0.1200
38     H38    -0.2268   -0.1819    0.4530 H        1 ZINC000029042448    0.1300
39     H39    -1.3619   -1.3703   -0.4541 H        1 ZINC000029042448    0.0500
40     H40     0.1842   -1.2195   -1.3240 H        1 ZINC000029042448    0.0900
41     H41    -1.6029   -2.1621   -2.7818 H        1 ZINC000029042448    0.0900
42     H42    -0.2762   -3.3233   -2.5344 H        1 ZINC000029042448    0.0500
43     H43    -3.0349   -3.9123   -3.3471 H        1 ZINC000029042448    0.0800
44     H44    -1.9113   -5.2437   -2.9823 H        1 ZINC000029042448    0.0400
45     H45    -3.4404   -6.0467   -1.2032 H        1 ZINC000029042448    0.0700
46     H46    -4.5640   -4.7153   -1.5679 H        1 ZINC000029042448    0.0800
47     H47    -4.8262   -5.5702   -3.8807 H        1 ZINC000029042448    0.0800
48     H48    -3.7026   -6.9016   -3.5160 H        1 ZINC000029042448    0.0800
49     H49    -5.7802   -6.9411   -1.6032 H        1 ZINC000029042448    0.4100
50     H50   -10.8311  -10.9568   -0.7510 H        1 ZINC000029042448    0.1400
51     H51   -12.6132  -12.6102   -1.2625 H        1 ZINC000029042448    0.1500
52     H52   -12.8445  -13.4632   -3.5584 H        1 ZINC000029042448    0.1700
53     H53    -9.6655  -11.1439   -4.8741 H        1 ZINC000029042448    0.1700
54     H54    -2.1313   -5.3230   -0.0901 H        1 ZINC000029042448    0.0800
55     H55    -0.5853   -5.1721   -0.9600 H        1 ZINC000029042448    0.0500
56     H56    -0.3443   -4.3803    1.3677 H        1 ZINC000029042448    0.0900
57     H57    -1.6710   -3.2191    1.1203 H        1 ZINC000029042448    0.0500
@<TRIPOS>BOND
1     1     2     1
2     1     32    1
3     1     33    1
4     1     34    1
5     2     3     1
6     3     8     ar
7     3     4     ar
8     4     5     ar
9     4     35    1
10    5     6     ar
11    5     36    1
12    6     7     ar
13    6     37    1
14    7     8     ar
15    7     38    1
16    8     9     1
17    9     31    1
18    9     10    1
19    10    11    1
20    10    39    1
21    10    40    1
22    11    12    1
23    11    41    1
24    11    42    1
25    12    13    1
26    12    30    1
27    13    14    1
28    13    43    1
29    13    44    1
30    14    15    1
31    14    45    1
32    14    46    1
33    15    16    1
34    15    47    1
35    15    48    1
36    16    17    am
37    16    49    1
38    17    18    2
39    17    19    1
40    19    29    1
41    19    20    2
42    20    21    1
43    21    22    1
44    21    28    2
45    22    27    ar
46    22    23    ar
47    23    24    ar
48    23    50    1
49    24    25    ar
50    24    51    1
51    25    26    ar
52    25    52    1
53    26    27    ar
54    27    53    1
55    28    29    1
56    30    31    1
57    30    54    1
58    30    55    1
59    31    56    1
60    31    57    1
@<TRIPOS>SUBSTRUCTURE
1   ZINC000029042448 1     RESIDUE    1   A     ZIN   1
