@<TRIPOS>MOLECULE
ZINC000005929253
  35   38    0    0    0
SMALL
NO_CHARGES
@<TRIPOS>ATOM
   1 C1            -0.0173     1.4248     0.0099 C.3     
   2 O2             0.0021    -0.0041     0.0020 O.3     
   3 C3             0.6260    -0.6185     1.0418 C.ar    
   4 C4             0.6940    -2.0164     1.1058 C.ar    
   5 C5             0.0917    -2.8606     0.0477 C.ar    
   6 C6            -0.9854    -3.6945     0.3461 C.ar    
   7 C7            -1.5425    -4.4782    -0.6437 C.ar    
   8 C8            -1.0345    -4.4377    -1.9298 C.ar    
   9 C9             0.0342    -3.6128    -2.2317 C.ar    
  10 C10            0.5960    -2.8202    -1.2517 C.ar    
  11 C11            1.3511    -2.5906     2.2036 C.ar    
  12 C12            1.9108    -1.7648     3.1875 C.ar    
  13 N13            1.8146    -0.4467     3.0733 N.ar    
  14 C14            1.2105     0.1279     2.0535 C.ar    
  15 O15            2.4802    -2.5507     4.1282 O.3     
  16 C16            2.3363    -3.8625     3.8344 C.ar    
  17 C17            1.6303    -3.9727     2.6278 C.ar    
  18 C18            1.3440    -5.2259     2.0946 C.ar    
  19 C19            1.7592    -6.3651     2.7603 C.ar    
  20 O20            1.4826    -7.5925     2.2444 O.3     
  21 C21            2.4595    -6.2557     3.9562 C.ar    
  22 C22            2.7455    -5.0172     4.4900 C.ar    
  23 H23            1.0053     1.8021     0.0021 H       
  24 H24           -0.5445     1.7859    -0.8732 H       
  25 H25           -0.5275     1.7763     0.9067 H       
  26 H26           -1.3826    -3.7272     1.3499 H       
  27 H27           -2.3765    -5.1246    -0.4138 H       
  28 H28           -1.4738    -5.0529    -2.7012 H       
  29 H29            0.4268    -3.5857    -3.2375 H       
  30 H30            1.4301    -2.1764    -1.4887 H       
  31 H31            1.1608     1.2058     2.0094 H       
  32 H32            0.7998    -5.3085     1.1653 H       
  33 H33            2.1643    -7.9312     1.6481 H       
  34 H34            2.7814    -7.1484     4.4719 H       
  35 H35            3.2904    -4.9442     5.4196 H       
@<TRIPOS>BOND
   1    1    2 1
   2    1   23 1
   3    1   24 1
   4    1   25 1
   5    2    3 1
   6    3   14 ar
   7    3    4 ar
   8    4    5 1
   9    4   11 ar
  10    5   10 ar
  11    5    6 ar
  12    6    7 ar
  13    6   26 1
  14    7    8 ar
  15    7   27 1
  16    8    9 ar
  17    8   28 1
  18    9   10 ar
  19    9   29 1
  20   10   30 1
  21   11   17 1
  22   11   12 ar
  23   12   13 ar
  24   12   15 1
  25   13   14 ar
  26   14   31 1
  27   15   16 1
  28   16   22 ar
  29   16   17 ar
  30   17   18 ar
  31   18   19 ar
  32   18   32 1
  33   19   20 1
  34   19   21 ar
  35   20   33 1
  36   21   22 ar
  37   21   34 1
  38   22   35 1
