@<TRIPOS>MOLECULE
ZINC000000818861
49    52    1     0     0
SMALL
USER_CHARGES
@<TRIPOS>ATOM
1      C1     -0.0184    1.5028    0.0103 C.3      1 ZINC000000818861   -0.1100
2      C2      0.0021   -0.0041    0.0020 C.ar     1 ZINC000000818861    0.1900
3      C3      0.0059   -0.6989   -1.1975 C.ar     1 ZINC000000818861   -0.2400
4      C4      0.0249   -2.0845   -1.1608 C.ar     1 ZINC000000818861    0.2000
5      C5      0.0302   -2.8812   -2.4401 C.3      1 ZINC000000818861   -0.1100
6      N6      0.0386   -2.6990    0.0103 N.ar     1 ZINC000000818861   -0.5100
7      C7      0.0345   -2.0049    1.1396 C.ar     1 ZINC000000818861    0.2900
8      S8      0.0539   -2.8644    2.6776 S.3      1 ZINC000000818861    0.1000
9      C9      0.0400   -1.4618    3.8216 C.3      1 ZINC000000818861   -0.1500
10     C10     0.0539   -1.9704    5.2401 C.2      1 ZINC000000818861    0.5300
11     O11     0.0715   -3.1637    5.4563 O.2      1 ZINC000000818861   -0.4500
12     N12     0.0468   -1.0993    6.2685 N.am     1 ZINC000000818861   -0.6300
13     C13     0.0597   -1.5684    7.5769 C.2      1 ZINC000000818861    0.2600
14     N14     0.0843   -2.8189    7.9170 N.2      1 ZINC000000818861   -0.4700
15     C15     0.0933   -3.0866    9.2094 C.2      1 ZINC000000818861    0.0700
16     C16     0.0754   -2.0109    9.9989 C.2      1 ZINC000000818861   -0.2300
17     C17     0.0802   -2.0189   11.5059 C.3      1 ZINC000000818861    0.0000
18     C18     1.5023   -1.9947   12.0039 C.ar     1 ZINC000000818861   -0.0700
19     C19     2.1790   -0.7720   12.1492 C.ar     1 ZINC000000818861   -0.0400
20     C20     1.5556    0.4487   11.8384 C.ar     1 ZINC000000818861   -0.1100
21     C21     2.2421    1.6136   11.9920 C.ar     1 ZINC000000818861   -0.1100
22     C22     3.5574    1.6161   12.4534 C.ar     1 ZINC000000818861   -0.1200
23     C23     4.1934    0.4537   12.7637 C.ar     1 ZINC000000818861   -0.1000
24     C24     3.5164   -0.7694   12.6189 C.ar     1 ZINC000000818861   -0.0500
25     C25     4.1396   -1.9897   12.9298 C.ar     1 ZINC000000818861   -0.1100
26     C26     3.4525   -3.1549   12.7774 C.ar     1 ZINC000000818861   -0.1100
27     C27     2.1362   -3.1571   12.3206 C.ar     1 ZINC000000818861   -0.1000
28     S28     0.0527   -0.5798    8.9718 S.3      1 ZINC000000818861    0.1300
29     N29     0.0220   -0.6794    1.1390 N.ar     1 ZINC000000818861   -0.5400
30     H30     1.0042    1.8801    0.0026 H        1 ZINC000000818861    0.0900
31     H31    -0.5455    1.8639   -0.8728 H        1 ZINC000000818861    0.0800
32     H32    -0.5286    1.8543    0.9071 H        1 ZINC000000818861    0.0800
33     H33    -0.0060   -0.1721   -2.1402 H        1 ZINC000000818861    0.1500
34     H34     1.0591   -3.0593   -2.7529 H        1 ZINC000000818861    0.0900
35     H35    -0.4700   -3.8356   -2.2758 H        1 ZINC000000818861    0.0900
36     H36    -0.4945   -2.3248   -3.2167 H        1 ZINC000000818861    0.0800
37     H37     0.9206   -0.8432    3.6488 H        1 ZINC000000818861    0.1300
38     H38    -0.8592   -0.8679    3.6574 H        1 ZINC000000818861    0.1300
39     H39     0.0327   -0.1449    6.0955 H        1 ZINC000000818861    0.4300
40     H40     0.1135   -4.0946    9.5966 H        1 ZINC000000818861    0.1800
41     H41    -0.4492   -1.1407   11.8755 H        1 ZINC000000818861    0.0900
42     H42    -0.4157   -2.9203   11.8661 H        1 ZINC000000818861    0.1000
43     H43     0.5371    0.4621   11.4793 H        1 ZINC000000818861    0.1200
44     H44     1.7607    2.5502   11.7525 H        1 ZINC000000818861    0.1200
45     H45     4.0797    2.5547   12.5659 H        1 ZINC000000818861    0.1200
46     H46     5.2129    0.4711   13.1195 H        1 ZINC000000818861    0.1300
47     H47     5.1586   -2.0032   13.2874 H        1 ZINC000000818861    0.1300
48     H48     3.9340   -4.0915   13.0167 H        1 ZINC000000818861    0.1300
49     H49     1.6134   -4.0955   12.2089 H        1 ZINC000000818861    0.1300
@<TRIPOS>BOND
1     1     2     1
2     1     30    1
3     1     31    1
4     1     32    1
5     2     29    ar
6     2     3     ar
7     3     4     ar
8     3     33    1
9     4     5     1
10    4     6     ar
11    5     34    1
12    5     35    1
13    5     36    1
14    6     7     ar
15    7     8     1
16    7     29    ar
17    8     9     1
18    9     10    1
19    9     37    1
20    9     38    1
21    10    11    2
22    10    12    am
23    12    13    1
24    12    39    1
25    13    28    1
26    13    14    2
27    14    15    1
28    15    16    2
29    15    40    1
30    16    17    1
31    16    28    1
32    17    18    1
33    17    41    1
34    17    42    1
35    18    27    ar
36    18    19    ar
37    19    24    ar
38    19    20    ar
39    20    21    ar
40    20    43    1
41    21    22    ar
42    21    44    1
43    22    23    ar
44    22    45    1
45    23    24    ar
46    23    46    1
47    24    25    ar
48    25    26    ar
49    25    47    1
50    26    27    ar
51    26    48    1
52    27    49    1
@<TRIPOS>SUBSTRUCTURE
1   ZINC000000818861 1     RESIDUE    1   A     ZIN   1
