@<TRIPOS>MOLECULE
ZINC000003775158
31    33    1     0     0
SMALL
USER_CHARGES
@<TRIPOS>ATOM
1      O1     -0.0075    0.0133    0.2062 O.2      1 ZINC000003775158   -0.5100
2      C2     -0.0141    1.2207   -0.0056 C.2      1 ZINC000003775158    0.4300
3      C3     -1.2115    1.8944   -0.2503 C.2      1 ZINC000003775158   -0.4100
4      C4     -1.2047    3.2592   -0.4887 C.2      1 ZINC000003775158    0.2800
5      O5     -2.3794    3.8966   -0.7247 O.3      1 ZINC000003775158   -0.4700
6      C6     -0.0244    3.9903   -0.4912 C.2      1 ZINC000003775158   -0.2600
7      C7      1.1926    3.3772   -0.2545 C.2      1 ZINC000003775158    0.1900
8      O8      2.3358    4.0934   -0.2579 O.3      1 ZINC000003775158   -0.1700
9      C9      3.5223    3.5083   -0.0289 C.2      1 ZINC000003775158    0.1600
10     C10     4.7448    4.3267   -0.0413 C.ar     1 ZINC000003775158   -0.0600
11     C11     5.8680    3.8991   -0.7578 C.ar     1 ZINC000003775158   -0.0500
12     C12     7.0117    4.6673   -0.7677 C.ar     1 ZINC000003775158   -0.1300
13     C13     7.0533    5.8659   -0.0682 C.ar     1 ZINC000003775158    0.1100
14     O14     8.1834    6.6189   -0.0817 O.3      1 ZINC000003775158   -0.4800
15     C15     5.9374    6.2991    0.6481 C.ar     1 ZINC000003775158    0.0800
16     O16     5.9824    7.4740    1.3315 O.3      1 ZINC000003775158   -0.4800
17     C17     4.7857    5.5382    0.6591 C.ar     1 ZINC000003775158   -0.0900
18     C18     3.6176    2.1433    0.2202 C.2      1 ZINC000003775158    0.0200
19     O19     4.8308    1.5739    0.4498 O.3      1 ZINC000003775158   -0.4500
20     C20     2.4661    1.3635    0.2339 C.2      1 ZINC000003775158    0.0100
21     C21     1.2337    1.9871   -0.0008 C.2      1 ZINC000003775158   -0.2200
22     H22    -2.1449    1.3509   -0.2544 H        1 ZINC000003775158    0.1400
23     H23    -3.1527    3.3162   -0.7050 H        1 ZINC000003775158    0.4100
24     H24    -0.0569    5.0530   -0.6812 H        1 ZINC000003775158    0.1500
25     H25     5.8387    2.9671   -1.3026 H        1 ZINC000003775158    0.1400
26     H26     7.8782    4.3362   -1.3208 H        1 ZINC000003775158    0.1500
27     H27     8.2173    7.2646   -0.8007 H        1 ZINC000003775158    0.3900
28     H28     5.7022    8.2412    0.8138 H        1 ZINC000003775158    0.3900
29     H29     3.9210    5.8728    1.2130 H        1 ZINC000003775158    0.1400
30     H30     4.7939    0.6214    0.6125 H        1 ZINC000003775158    0.4100
31     H31     2.5203    0.3019    0.4252 H        1 ZINC000003775158    0.1700
@<TRIPOS>BOND
1     1     2     2
2     2     21    1
3     2     3     1
4     3     4     2
5     3     22    1
6     4     5     1
7     4     6     1
8     5     23    1
9     6     7     2
10    6     24    1
11    7     21    1
12    7     8     1
13    8     9     1
14    9     10    1
15    9     18    2
16    10    17    ar
17    10    11    ar
18    11    12    ar
19    11    25    1
20    12    13    ar
21    12    26    1
22    13    14    1
23    13    15    ar
24    14    27    1
25    15    16    1
26    15    17    ar
27    16    28    1
28    17    29    1
29    18    19    1
30    18    20    1
31    19    30    1
32    20    21    2
33    20    31    1
@<TRIPOS>SUBSTRUCTURE
1   ZINC000003775158 1     RESIDUE    1   A     ZIN   1
