@<TRIPOS>MOLECULE
ZINC000025725416
89    88    1     0     0
SMALL
USER_CHARGES
@<TRIPOS>ATOM
1      N1      0.7965    3.3836    8.9329 N.4      1 ZINC000025725416   -0.6300
2      H2      0.3930    3.5222    9.8472 H        1 ZINC000025725416    0.4400
3      H3      1.5226    4.0670    8.7786 H        1 ZINC000025725416    0.4500
4      H4      1.1899    2.4562    8.8759 H        1 ZINC000025725416    0.4400
5      C5     -0.2459    3.5370    7.9092 C.3      1 ZINC000025725416   -0.0200
6      C6     -1.3469    2.5008    8.1432 C.3      1 ZINC000025725416    0.0900
7      N7     -2.3865    2.6538    7.1223 N.am     1 ZINC000025725416   -0.7300
8      C8     -3.4627    1.8426    7.1296 C.2      1 ZINC000025725416    0.5200
9      O9     -3.5706    0.9859    7.9813 O.2      1 ZINC000025725416   -0.5300
10     C10    -4.5321    2.0000    6.0795 C.3      1 ZINC000025725416   -0.1400
11     C11    -5.6331    0.9637    6.3134 C.3      1 ZINC000025725416    0.0600
12     N12    -6.6755    1.1172    5.2898 N.3      1 ZINC000025725416   -0.5300
13     C13    -6.1576    0.7819    3.9566 C.3      1 ZINC000025725416    0.0600
14     C14    -7.1028    1.3351    2.8883 C.3      1 ZINC000025725416   -0.1300
15     C15    -6.5813    0.9751    1.5210 C.2      1 ZINC000025725416    0.5200
16     O16    -5.5547    0.3386    1.4118 O.2      1 ZINC000025725416   -0.5200
17     N17    -7.2558    1.3603    0.4196 N.am     1 ZINC000025725416   -0.7300
18     C18    -6.7488    1.0102   -0.9096 C.3      1 ZINC000025725416    0.0900
19     C19    -7.6941    1.5635   -1.9779 C.3      1 ZINC000025725416   -0.0200
20     N20    -7.1858    1.2125   -3.3107 N.4      1 ZINC000025725416   -0.6300
21     H21    -6.2671    1.6104   -3.4359 H        1 ZINC000025725416    0.4400
22     H22    -7.1320    0.2086   -3.3965 H        1 ZINC000025725416    0.4400
23     H23    -7.8091    1.5773   -4.0153 H        1 ZINC000025725416    0.4500
24     C24    -7.8563    0.3061    5.6151 C.3      1 ZINC000025725416    0.0200
25     C25    -8.6435    0.9799    6.7408 C.3      1 ZINC000025725416   -0.0200
26     N26    -9.8958    0.2469    6.9693 N.4      1 ZINC000025725416   -0.3800
27     H27   -10.4094    0.1803    6.1034 H        1 ZINC000025725416    0.4200
28     C28    -9.5903   -1.1026    7.4626 C.3      1 ZINC000025725416    0.0000
29     C29   -10.8821   -1.9177    7.5514 C.3      1 ZINC000025725416   -0.1700
30     C30   -10.5773   -3.2824    8.1133 C.2      1 ZINC000025725416    0.5300
31     O31    -9.4389   -3.5743    8.4132 O.2      1 ZINC000025725416   -0.5100
32     N32   -11.5696   -4.1785    8.2826 N.am     1 ZINC000025725416   -0.7200
33     C33   -11.2733   -5.5052    8.8288 C.3      1 ZINC000025725416    0.0900
34     C34   -12.5651   -6.3203    8.9176 C.3      1 ZINC000025725416   -0.0200
35     N35   -12.2680   -7.6506    9.4654 N.4      1 ZINC000025725416   -0.6300
36     H36   -11.6124   -8.1240    8.8619 H        1 ZINC000025725416    0.4400
37     H37   -11.8676   -7.5533   10.3864 H        1 ZINC000025725416    0.4400
38     H38   -13.1199   -8.1881    9.5239 H        1 ZINC000025725416    0.4500
39     C39   -10.7061    0.9606    7.9654 C.3      1 ZINC000025725416    0.0000
40     C40   -11.1454    2.3099    7.3935 C.3      1 ZINC000025725416   -0.1700
41     C41   -11.9253    3.0678    8.4367 C.2      1 ZINC000025725416    0.5300
42     O42   -12.1115    2.5770    9.5301 O.2      1 ZINC000025725416   -0.5100
43     N43   -12.4159    4.2910    8.1548 N.am     1 ZINC000025725416   -0.7200
44     C44   -13.1741    5.0278    9.1690 C.3      1 ZINC000025725416    0.0900
45     C45   -13.6134    6.3771    8.5971 C.3      1 ZINC000025725416   -0.0200
46     N46   -14.3737    7.1159    9.6140 N.4      1 ZINC000025725416   -0.6300
47     H47   -15.1877    6.5819    9.8792 H        1 ZINC000025725416    0.4400
48     H48   -13.7921    7.2674   10.4245 H        1 ZINC000025725416    0.4400
49     H49   -14.6634    8.0058    9.2368 H        1 ZINC000025725416    0.4500
50     H50    -0.6709    4.5389    7.9708 H        1 ZINC000025725416    0.1400
51     H51     0.1900    3.3873    6.9215 H        1 ZINC000025725416    0.1400
52     H52    -0.9220    1.4989    8.0816 H        1 ZINC000025725416    0.0900
53     H53    -1.7829    2.6505    9.1309 H        1 ZINC000025725416    0.0900
54     H54    -2.3002    3.3390    6.4412 H        1 ZINC000025725416    0.4100
55     H55    -4.9570    3.0019    6.1410 H        1 ZINC000025725416    0.1100
56     H56    -4.0962    1.8503    5.0917 H        1 ZINC000025725416    0.1000
57     H57    -5.2081   -0.0381    6.2519 H        1 ZINC000025725416    0.0600
58     H58    -6.0690    1.1135    7.3012 H        1 ZINC000025725416    0.0900
59     H59    -5.1685    1.2221    3.8298 H        1 ZINC000025725416    0.1000
60     H60    -6.0889   -0.3012    3.8553 H        1 ZINC000025725416    0.0600
61     H61    -8.0953    0.9052    3.0234 H        1 ZINC000025725416    0.0900
62     H62    -7.1609    2.4196    2.9810 H        1 ZINC000025725416    0.1100
63     H63    -8.0769    1.8693    0.5069 H        1 ZINC000025725416    0.4100
64     H64    -5.7564    1.4402   -1.0448 H        1 ZINC000025725416    0.0900
65     H65    -6.6907   -0.0742   -1.0023 H        1 ZINC000025725416    0.0900
66     H66    -8.6866    1.1335   -1.8428 H        1 ZINC000025725416    0.1400
67     H67    -7.7522    2.6480   -1.8853 H        1 ZINC000025725416    0.1400
68     H68    -8.4895    0.2159    4.7325 H        1 ZINC000025725416    0.1000
69     H69    -7.5384   -0.6855    5.9371 H        1 ZINC000025725416    0.0700
70     H70    -8.0480    0.9753    7.6538 H        1 ZINC000025725416    0.1400
71     H71    -8.8705    2.0085    6.4603 H        1 ZINC000025725416    0.1400
72     H72    -8.8983   -1.5920    6.7772 H        1 ZINC000025725416    0.1400
73     H73    -9.1353   -1.0340    8.4507 H        1 ZINC000025725416    0.1500
74     H74   -11.5903   -1.4063    8.2033 H        1 ZINC000025725416    0.1200
75     H75   -11.3145   -2.0228    6.5564 H        1 ZINC000025725416    0.1200
76     H76   -12.4801   -3.9450    8.0427 H        1 ZINC000025725416    0.4100
77     H77   -10.5651   -6.0166    8.1770 H        1 ZINC000025725416    0.1000
78     H78   -10.8409   -5.4001    9.8238 H        1 ZINC000025725416    0.1000
79     H79   -13.2733   -5.8089    9.5695 H        1 ZINC000025725416    0.1400
80     H80   -12.9976   -6.4254    7.9226 H        1 ZINC000025725416    0.1400
81     H81   -11.5862    0.3663    8.2111 H        1 ZINC000025725416    0.1400
82     H82   -10.1143    1.1231    8.8662 H        1 ZINC000025725416    0.1500
83     H83   -10.2660    2.8868    7.1070 H        1 ZINC000025725416    0.1200
84     H84   -11.7736    2.1463    6.5179 H        1 ZINC000025725416    0.1200
85     H85   -12.2671    4.6836    7.2804 H        1 ZINC000025725416    0.4100
86     H86   -14.0535    4.4509    9.4555 H        1 ZINC000025725416    0.1000
87     H87   -12.5459    5.1914   10.0446 H        1 ZINC000025725416    0.1000
88     H88   -12.7340    6.9540    8.3106 H        1 ZINC000025725416    0.1400
89     H89   -14.2416    6.2135    7.7215 H        1 ZINC000025725416    0.1400
@<TRIPOS>BOND
1     1     2     1
2     1     3     1
3     1     4     1
4     1     5     1
5     5     6     1
6     5     50    1
7     5     51    1
8     6     7     1
9     6     52    1
10    6     53    1
11    7     8     am
12    7     54    1
13    8     9     2
14    8     10    1
15    10    11    1
16    10    55    1
17    10    56    1
18    11    12    1
19    11    57    1
20    11    58    1
21    12    13    1
22    12    24    1
23    13    14    1
24    13    59    1
25    13    60    1
26    14    15    1
27    14    61    1
28    14    62    1
29    15    16    2
30    15    17    am
31    17    18    1
32    17    63    1
33    18    19    1
34    18    64    1
35    18    65    1
36    19    20    1
37    19    66    1
38    19    67    1
39    20    21    1
40    20    22    1
41    20    23    1
42    24    25    1
43    24    68    1
44    24    69    1
45    25    26    1
46    25    70    1
47    25    71    1
48    26    27    1
49    26    28    1
50    26    39    1
51    28    29    1
52    28    72    1
53    28    73    1
54    29    30    1
55    29    74    1
56    29    75    1
57    30    31    2
58    30    32    am
59    32    33    1
60    32    76    1
61    33    34    1
62    33    77    1
63    33    78    1
64    34    35    1
65    34    79    1
66    34    80    1
67    35    36    1
68    35    37    1
69    35    38    1
70    39    40    1
71    39    81    1
72    39    82    1
73    40    41    1
74    40    83    1
75    40    84    1
76    41    42    2
77    41    43    am
78    43    44    1
79    43    85    1
80    44    45    1
81    44    86    1
82    44    87    1
83    45    46    1
84    45    88    1
85    45    89    1
86    46    47    1
87    46    48    1
88    46    49    1
@<TRIPOS>SUBSTRUCTURE
1   ZINC000025725416 1     RESIDUE    1   A     ZIN   1
