@<TRIPOS>MOLECULE
ZINC000000090757
31    32    1     0     0
SMALL
USER_CHARGES
@<TRIPOS>ATOM
1      C1     -0.0178    1.4648    0.0101 C.3      1 ZINC000000090757   -0.0500
2      N2      0.0021   -0.0041    0.0020 N.4      1 ZINC000000090757   -0.3800
3      H3      0.4743   -0.3295   -0.8281 H        1 ZINC000000090757    0.4300
4      C4      0.7126   -0.4907    1.1921 C.3      1 ZINC000000090757   -0.0600
5      C5     -1.3761   -0.5125    0.0124 C.3      1 ZINC000000090757   -0.0300
6      C6     -1.3584   -2.0365   -0.1216 C.3      1 ZINC000000090757    0.0900
7      N7     -2.7328   -2.5436   -0.1112 N.am     1 ZINC000000090757   -0.5800
8      C8     -3.4049   -2.8982    0.9988 C.2      1 ZINC000000090757    0.5800
9      O9     -2.9750   -2.8495    2.1337 O.2      1 ZINC000000090757   -0.4500
10     C10    -4.7543   -3.3563    0.6064 C.ar     1 ZINC000000090757   -0.1500
11     C11    -5.8557   -3.8289    1.3010 C.ar     1 ZINC000000090757   -0.0400
12     C12    -7.0038   -4.1844    0.6096 C.ar     1 ZINC000000090757   -0.0900
13     C13    -7.0563   -4.0703   -0.7665 C.ar     1 ZINC000000090757   -0.0900
14     C14    -5.9617   -3.5988   -1.4751 C.ar     1 ZINC000000090757   -0.0400
15     C15    -4.8079   -3.2399   -0.7976 C.ar     1 ZINC000000090757   -0.1500
16     C16    -3.4909   -2.7104   -1.2100 C.2      1 ZINC000000090757    0.5800
17     O17    -3.1496   -2.4682   -2.3501 O.2      1 ZINC000000090757   -0.4500
18     H18     1.0047    1.8421    0.0024 H        1 ZINC000000090757    0.1300
19     H19    -0.5450    1.8259   -0.8730 H        1 ZINC000000090757    0.1300
20     H20    -0.5280    1.8163    0.9069 H        1 ZINC000000090757    0.1200
21     H21     0.2024   -0.1392    2.0889 H        1 ZINC000000090757    0.1300
22     H22     0.7274   -1.5806    1.1861 H        1 ZINC000000090757    0.1200
23     H23     1.7352   -0.1134    1.1844 H        1 ZINC000000090757    0.1300
24     H24    -1.8584   -0.2358    0.9500 H        1 ZINC000000090757    0.1400
25     H25    -1.9290   -0.0808   -0.8218 H        1 ZINC000000090757    0.1400
26     H26    -0.8762   -2.3132   -1.0592 H        1 ZINC000000090757    0.1200
27     H27    -0.8055   -2.4683    0.7126 H        1 ZINC000000090757    0.1200
28     H28    -5.8201   -3.9205    2.3766 H        1 ZINC000000090757    0.1500
29     H29    -7.8628   -4.5533    1.1503 H        1 ZINC000000090757    0.1500
30     H30    -7.9561   -4.3507   -1.2939 H        1 ZINC000000090757    0.1500
31     H31    -6.0085   -3.5115   -2.5505 H        1 ZINC000000090757    0.1500
@<TRIPOS>BOND
1     1     2     1
2     1     18    1
3     1     19    1
4     1     20    1
5     2     3     1
6     2     4     1
7     2     5     1
8     4     21    1
9     4     22    1
10    4     23    1
11    5     6     1
12    5     24    1
13    5     25    1
14    6     7     1
15    6     26    1
16    6     27    1
17    7     16    am
18    7     8     am
19    8     9     2
20    8     10    1
21    10    15    ar
22    10    11    ar
23    11    12    ar
24    11    28    1
25    12    13    ar
26    12    29    1
27    13    14    ar
28    13    30    1
29    14    15    ar
30    14    31    1
31    15    16    1
32    16    17    2
@<TRIPOS>SUBSTRUCTURE
1   ZINC000000090757 1     RESIDUE    1   A     ZIN   1
