@<TRIPOS>MOLECULE
ZINC000000399854
20    20    1     0     0
SMALL
USER_CHARGES
@<TRIPOS>ATOM
1      C1     -0.0187    1.5258    0.0104 C.3      1 ZINC000000399854   -0.1700
2      C2      0.0021   -0.0041    0.0020 C.3      1 ZINC000000399854    0.1000
3      N3      0.7106   -0.4894    1.1889 N.am     1 ZINC000000399854   -0.5500
4      C4      2.0683   -0.6930    1.1381 C.2      1 ZINC000000399854    0.4800
5      N5      2.7624   -0.4439   -0.0181 N.pl3    1 ZINC000000399854   -0.8400
6      C6      2.7213   -1.1456    2.2507 C.2      1 ZINC000000399854   -0.4100
7      C7      1.9853   -1.3916    3.4204 C.2      1 ZINC000000399854    0.5600
8      O8      2.5465   -1.7951    4.4247 O.2      1 ZINC000000399854   -0.5300
9      N9      0.6547   -1.1785    3.4267 N.am     1 ZINC000000399854   -0.6600
10     C10     0.0287   -0.7279    2.3242 C.2      1 ZINC000000399854    0.7100
11     O11    -1.1726   -0.5423    2.3514 O.2      1 ZINC000000399854   -0.5400
12     H12     1.0039    1.9031    0.0027 H        1 ZINC000000399854    0.0600
13     H13    -0.5459    1.8868   -0.8726 H        1 ZINC000000399854    0.0800
14     H14    -0.5289    1.8773    0.9072 H        1 ZINC000000399854    0.0700
15     H15    -1.0205   -0.3814    0.0098 H        1 ZINC000000399854    0.1100
16     H16     0.5123   -0.3556   -0.8948 H        1 ZINC000000399854    0.0900
17     H17     2.2948   -0.1226   -0.8049 H        1 ZINC000000399854    0.4100
18     H18     3.7210   -0.5892   -0.0492 H        1 ZINC000000399854    0.4300
19     H19     3.7882   -1.3119    2.2298 H        1 ZINC000000399854    0.1600
20     H20     0.1444   -1.3482    4.2339 H        1 ZINC000000399854    0.4300
@<TRIPOS>BOND
1     1     2     1
2     1     12    1
3     1     13    1
4     1     14    1
5     2     3     1
6     2     15    1
7     2     16    1
8     3     10    am
9     3     4     1
10    4     5     1
11    4     6     2
12    5     17    1
13    5     18    1
14    6     7     1
15    6     19    1
16    7     8     2
17    7     9     am
18    9     10    am
19    9     20    1
20    10    11    2
@<TRIPOS>SUBSTRUCTURE
1   ZINC000000399854 1     RESIDUE    1   A     ZIN   1
