@<TRIPOS>MOLECULE
ZINC000038141465
  51   51    0    0    0
SMALL
USER_CHARGES
NO_NAME
@<TRIPOS>ATOM
    1 C1       -0.0187     1.5258     0.0104 C.3    1 <0>      -0.1500
    2 C2        0.0021    -0.0041     0.0020 C.3    1 <0>      -0.1300
    3 C3        0.7182    -0.4975    -1.2568 C.3    1 <0>      -0.1200
    4 C4        0.7390    -2.0273    -1.2652 C.3    1 <0>      -0.1200
    5 C5        1.4551    -2.5207    -2.5240 C.3    1 <0>      -0.1200
    6 C6        1.4758    -4.0506    -2.5324 C.3    1 <0>      -0.1200
    7 C7        2.1920    -4.5440    -3.7912 C.3    1 <0>      -0.1200
    8 C8        2.2127    -6.0738    -3.7996 C.3    1 <0>      -0.1200
    9 C9        2.9289    -6.5673    -5.0584 C.3    1 <0>      -0.1100
   10 C10       2.9496    -8.0971    -5.0668 C.3    1 <0>      -0.0500
   11 H11       3.3977    -8.4595    -4.1416 H      1 <0>       0.0800
   12 C12       1.5185    -8.6259    -5.1818 C.3    1 <0>      -0.1200
   13 C13       1.5276   -10.1514    -5.0649 C.3    1 <0>      -0.1500
   14 C14       3.7602    -8.5820    -6.2411 C.ar   1 <0>      -0.0500
   15 C15       3.3855    -8.2414    -7.5274 C.ar   1 <0>      -0.1400
   16 C16       4.1290    -8.6862    -8.6045 C.ar   1 <0>      -0.0300
   17 C17       5.2474    -9.4713    -8.3954 C.ar   1 <0>      -0.6600
   18 S18       6.1947   -10.0388    -9.7684 S.o2   1 <0>       2.7000
   19 O19       6.7776   -11.3130    -9.3778 O.co2  1 <0>      -1.0600
   20 O20       5.2727   -10.1795   -10.8847 O.co2  1 <0>      -1.0600
   21 O21       7.2104    -9.0290   -10.0232 O.co2  1 <0>      -1.0600
   22 C22       5.6228    -9.8108    -7.1090 C.ar   1 <0>      -0.0300
   23 C23       4.8815    -9.3628    -6.0317 C.ar   1 <0>      -0.1500
   24 H24       1.0039     1.9031     0.0027 H      1 <0>       0.0500
   25 H25      -0.5459     1.8868    -0.8726 H      1 <0>       0.0500
   26 H26      -0.5289     1.8773     0.9072 H      1 <0>       0.0500
   27 H27       0.5293    -0.3651     0.8851 H      1 <0>       0.0600
   28 H28      -1.0205    -0.3814     0.0098 H      1 <0>       0.0600
   29 H29       0.1910    -0.1364    -2.1398 H      1 <0>       0.0600
   30 H30       1.7408    -0.1202    -1.2645 H      1 <0>       0.0600
   31 H31       1.2661    -2.3884    -0.3821 H      1 <0>       0.0600
   32 H32      -0.2836    -2.4046    -1.2575 H      1 <0>       0.0600
   33 H33       0.9279    -2.1597    -3.4071 H      1 <0>       0.0600
   34 H34       2.4777    -2.1435    -2.5317 H      1 <0>       0.0600
   35 H35       2.0030    -4.4117    -1.6494 H      1 <0>       0.0600
   36 H36       0.4533    -4.4279    -2.5247 H      1 <0>       0.0600
   37 H37       1.6648    -4.1829    -4.6743 H      1 <0>       0.0600
   38 H38       3.2146    -4.1667    -3.7990 H      1 <0>       0.0600
   39 H39       2.7399    -6.4349    -2.9166 H      1 <0>       0.0600
   40 H40       1.1901    -6.4511    -3.7919 H      1 <0>       0.0600
   41 H41       2.4017    -6.2062    -5.9415 H      1 <0>       0.0600
   42 H42       3.9515    -6.1900    -5.0662 H      1 <0>       0.0600
   43 H43       0.9099    -8.2039    -4.3820 H      1 <0>       0.0600
   44 H44       1.1011    -8.3379    -6.1466 H      1 <0>       0.0600
   45 H45       2.1362   -10.5734    -5.8647 H      1 <0>       0.0600
   46 H46       1.9450   -10.4395    -4.1001 H      1 <0>       0.0500
   47 H47       0.5081   -10.5282    -5.1468 H      1 <0>       0.0500
   48 H48       2.5117    -7.6280    -7.6908 H      1 <0>       0.1200
   49 H49       3.8359    -8.4207    -9.6095 H      1 <0>       0.1300
   50 H50       6.4968   -10.4239    -6.9456 H      1 <0>       0.1300
   51 H51       5.1748    -9.6280    -5.0267 H      1 <0>       0.1200
@<TRIPOS>BOND
   1    1    2 1
   2    1   24 1
   3    1   25 1
   4    1   26 1
   5    2    3 1
   6    2   27 1
   7    2   28 1
   8    3    4 1
   9    3   29 1
  10    3   30 1
  11    4    5 1
  12    4   31 1
  13    4   32 1
  14    5    6 1
  15    5   33 1
  16    5   34 1
  17    6    7 1
  18    6   35 1
  19    6   36 1
  20    7    8 1
  21    7   37 1
  22    7   38 1
  23    8    9 1
  24    8   39 1
  25    8   40 1
  26    9   10 1
  27    9   41 1
  28    9   42 1
  29   10   11 1
  30   10   12 1
  31   10   14 1
  32   12   13 1
  33   12   43 1
  34   12   44 1
  35   13   45 1
  36   13   46 1
  37   13   47 1
  38   14   23 ar
  39   14   15 ar
  40   15   16 ar
  41   15   48 1
  42   16   17 ar
  43   16   49 1
  44   17   18 1
  45   17   22 ar
  46   18   19 ar
  47   18   20 ar
  48   18   21 ar
  49   22   23 ar
  50   22   50 1
  51   23   51 1
