@<TRIPOS>MOLECULE
ZINC000012547067
  31   33    0    0    0
SMALL
USER_CHARGES
NO_NAME
@<TRIPOS>ATOM
    1 O1        0.0021    -0.0041     0.0020 O.2    1 <0>      -0.4700
    2 C2       -0.0144     1.2115     0.0087 C.2    1 <0>       0.5500
    3 N3        1.1435     1.9012     0.0014 N.am   1 <0>      -0.6200
    4 C4        2.3551     1.2234    -0.0139 C.2    1 <0>       0.2700
    5 N5        3.5252     1.7812    -0.0168 N.2    1 <0>      -0.5000
    6 C6        4.5773     0.9737    -0.0314 C.2    1 <0>       0.1200
    7 C7        5.9681     1.4845    -0.0359 C.ar   1 <0>       0.1900
    8 C8        6.2000     2.8592    -0.0193 C.ar   1 <0>      -0.1400
    9 C9        7.5043     3.3208    -0.0237 C.ar   1 <0>      -0.0800
   10 C10       8.5361     2.3924    -0.0446 C.ar   1 <0>      -0.1700
   11 C11       8.2347     1.0435    -0.0602 C.ar   1 <0>       0.1000
   12 N12       6.9836     0.6295    -0.0501 N.ar   1 <0>      -0.4800
   13 C13       4.2936    -0.3421    -0.0414 C.2    1 <0>      -0.2500
   14 S14       2.5413    -0.5277    -0.0244 S.3    1 <0>       0.2200
   15 C15      -1.3037     1.9327     0.0187 C.ar   1 <0>      -0.1200
   16 C16      -1.3265     3.3285     0.0207 C.ar   1 <0>      -0.0800
   17 C17      -2.5338     3.9957     0.0301 C.ar   1 <0>      -0.1100
   18 C18      -3.7211     3.2852     0.0376 C.ar   1 <0>      -0.0800
   19 C19      -3.7071     1.9019     0.0363 C.ar   1 <0>      -0.1000
   20 C20      -2.5061     1.2209     0.0206 C.ar   1 <0>      -0.0400
   21 Br21     -2.4885    -0.6700     0.0180 Br     1 <0>       0.0000
   22 H22       1.1303     2.8711     0.0067 H      1 <0>       0.4200
   23 H23       5.3733     3.5539    -0.0036 H      1 <0>       0.1400
   24 H24       7.7150     4.3800    -0.0115 H      1 <0>       0.1400
   25 H25       9.5649     2.7210    -0.0489 H      1 <0>       0.1400
   26 H26       9.0354     0.3190    -0.0764 H      1 <0>       0.1600
   27 H27       5.0154    -1.1454    -0.0537 H      1 <0>       0.1900
   28 H28      -0.4008     3.8848     0.0151 H      1 <0>       0.1400
   29 H29      -2.5524     5.0756     0.0319 H      1 <0>       0.1400
   30 H30      -4.6633     3.8130     0.0450 H      1 <0>       0.1400
   31 H31      -4.6375     1.3535     0.0429 H      1 <0>       0.1400
@<TRIPOS>BOND
   1    1    2 2
   2    2    3 am
   3    2   15 1
   4    3    4 1
   5    3   22 1
   6    4   14 1
   7    4    5 2
   8    5    6 1
   9    6    7 1
  10    6   13 2
  11    7   12 ar
  12    7    8 ar
  13    8    9 ar
  14    8   23 1
  15    9   10 ar
  16    9   24 1
  17   10   11 ar
  18   10   25 1
  19   11   12 ar
  20   11   26 1
  21   13   14 1
  22   13   27 1
  23   15   20 ar
  24   15   16 ar
  25   16   17 ar
  26   16   28 1
  27   17   18 ar
  28   17   29 1
  29   18   19 ar
  30   18   30 1
  31   19   20 ar
  32   19   31 1
  33   20   21 1
