@<TRIPOS>MOLECULE
ZINC000003965593
28    29    1     0     0
SMALL
USER_CHARGES
@<TRIPOS>ATOM
1      O1      0.1220    0.0555    0.9431 O.2      1 ZINC000003965593   -0.4300
2      C2      0.0444    1.2290    0.6280 C.2      1 ZINC000003965593    0.4000
3      C3      1.2473    1.9609    0.2308 C.2      1 ZINC000003965593   -0.2000
4      C4      2.4194    1.3062    0.0879 C.2      1 ZINC000003965593   -0.0700
5      C5      2.4442   -0.1648    0.0800 C.ar     1 ZINC000003965593   -0.0500
6      C6      1.5260   -0.8793   -0.6967 C.ar     1 ZINC000003965593   -0.0500
7      C7      1.5558   -2.2577   -0.6987 C.ar     1 ZINC000003965593   -0.1200
8      C8      2.4906   -2.9346    0.0655 C.ar     1 ZINC000003965593   -0.1200
9      C9      3.4022   -2.2349    0.8370 C.ar     1 ZINC000003965593   -0.1300
10     C10     3.3898   -0.8562    0.8446 C.ar     1 ZINC000003965593   -0.1100
11     C11    -1.2645    1.9118    0.6409 C.ar     1 ZINC000003965593   -0.3200
12     C12    -1.3590    3.2565    0.2746 C.ar     1 ZINC000003965593   -0.0300
13     C13    -2.5839    3.8880    0.2888 C.ar     1 ZINC000003965593   -0.2800
14     C14    -3.7231    3.1954    0.6648 C.ar     1 ZINC000003965593   -0.0600
15     C15    -3.6438    1.8656    1.0298 C.ar     1 ZINC000003965593   -0.2700
16     C16    -2.4209    1.2126    1.0153 C.ar     1 ZINC000003965593    0.3000
17     O17    -2.3416   -0.0936    1.3731 O.3      1 ZINC000003965593   -0.6800
18     H18     1.1977    3.0248    0.0519 H        1 ZINC000003965593    0.1300
19     H19     3.3388    1.8624   -0.0206 H        1 ZINC000003965593    0.1300
20     H20     0.7956   -0.3526   -1.2930 H        1 ZINC000003965593    0.1100
21     H21     0.8476   -2.8108   -1.2978 H        1 ZINC000003965593    0.1200
22     H22     2.5085   -4.0144    0.0599 H        1 ZINC000003965593    0.1100
23     H23     4.1282   -2.7702    1.4308 H        1 ZINC000003965593    0.1100
24     H24     4.1017   -0.3116    1.4472 H        1 ZINC000003965593    0.1200
25     H25    -0.4734    3.8005   -0.0189 H        1 ZINC000003965593    0.1000
26     H26    -2.6559    4.9278    0.0058 H        1 ZINC000003965593    0.0900
27     H27    -4.6788    3.6982    0.6730 H        1 ZINC000003965593    0.0900
28     H28    -4.5364    1.3325    1.3221 H        1 ZINC000003965593    0.1000
@<TRIPOS>BOND
1     1     2     2
2     2     3     1
3     2     11    1
4     3     4     2
5     3     18    1
6     4     5     1
7     4     19    1
8     5     10    ar
9     5     6     ar
10    6     7     ar
11    6     20    1
12    7     8     ar
13    7     21    1
14    8     9     ar
15    8     22    1
16    9     10    ar
17    9     23    1
18    10    24    1
19    11    16    ar
20    11    12    ar
21    12    13    ar
22    12    25    1
23    13    14    ar
24    13    26    1
25    14    15    ar
26    14    27    1
27    15    16    ar
28    15    28    1
29    16    17    1
@<TRIPOS>SUBSTRUCTURE
1   ZINC000003965593 1     RESIDUE    1   A     ZIN   1
