@<TRIPOS>MOLECULE
ZINC000003871633
29    31    1     0     0
SMALL
USER_CHARGES
@<TRIPOS>ATOM
1      O1      0.0021   -0.0041    0.0020 O.2      1 ZINC000003871633   -0.5000
2      C2     -0.0145    1.2161    0.0087 C.2      1 ZINC000003871633    0.4300
3      C3     -1.2342    1.9353    0.0302 C.2      1 ZINC000003871633   -0.3100
4      C4     -1.2109    3.2941    0.0376 C.2      1 ZINC000003871633    0.1900
5      C5     -2.4935    4.0260    0.0605 C.ar     1 ZINC000003871633   -0.0600
6      C6     -3.7010    3.3246    0.0801 C.ar     1 ZINC000003871633   -0.0900
7      C7     -4.8952    4.0146    0.1020 C.ar     1 ZINC000003871633   -0.1200
8      C8     -4.8986    5.3983    0.1041 C.ar     1 ZINC000003871633   -0.1100
9      C9     -3.7059    6.0995    0.0848 C.ar     1 ZINC000003871633   -0.1200
10     C10    -2.5043    5.4224    0.0686 C.ar     1 ZINC000003871633   -0.0800
11     O11    -0.0675    3.9967    0.0252 O.3      1 ZINC000003871633   -0.2300
12     C12     1.1446    3.4017    0.0045 C.ar     1 ZINC000003871633    0.1900
13     C13     2.3056    4.1587   -0.0073 C.ar     1 ZINC000003871633   -0.2900
14     C14     3.5424    3.5335   -0.0281 C.ar     1 ZINC000003871633    0.3100
15     O15     4.6752    4.2831   -0.0391 O.3      1 ZINC000003871633   -0.6800
16     C16     3.6345    2.1431   -0.0373 C.ar     1 ZINC000003871633   -0.0800
17     O17     4.8564    1.5427   -0.0577 O.3      1 ZINC000003871633   -0.4700
18     C18     2.4841    1.3706   -0.0252 C.ar     1 ZINC000003871633    0.2000
19     O19     2.5697    0.0150   -0.0337 O.3      1 ZINC000003871633   -0.4800
20     C20     1.2332    1.9983    0.0010 C.ar     1 ZINC000003871633   -0.3600
21     H21    -2.1764    1.4076    0.0404 H        1 ZINC000003871633    0.1500
22     H22    -3.6998    2.2446    0.0778 H        1 ZINC000003871633    0.1300
23     H23    -5.8298    3.4735    0.1172 H        1 ZINC000003871633    0.1300
24     H24    -5.8366    5.9334    0.1205 H        1 ZINC000003871633    0.1200
25     H25    -3.7158    7.1795    0.0865 H        1 ZINC000003871633    0.1300
26     H26    -1.5740    5.9709    0.0539 H        1 ZINC000003871633    0.1400
27     H27     2.2464    5.2371   -0.0007 H        1 ZINC000003871633    0.1200
28     H28     5.2216    1.3643    0.8197 H        1 ZINC000003871633    0.3600
29     H29     2.6069   -0.3823    0.8471 H        1 ZINC000003871633    0.3800
@<TRIPOS>BOND
1     1     2     2
2     2     20    1
3     2     3     1
4     3     4     2
5     3     21    1
6     4     5     1
7     4     11    1
8     5     10    ar
9     5     6     ar
10    6     7     ar
11    6     22    1
12    7     8     ar
13    7     23    1
14    8     9     ar
15    8     24    1
16    9     10    ar
17    9     25    1
18    10    26    1
19    11    12    1
20    12    20    ar
21    12    13    ar
22    13    14    ar
23    13    27    1
24    14    15    1
25    14    16    ar
26    16    17    1
27    16    18    ar
28    17    28    1
29    18    19    1
30    18    20    ar
31    19    29    1
@<TRIPOS>SUBSTRUCTURE
1   ZINC000003871633 1     RESIDUE    1   A     ZIN   1
