@<TRIPOS>MOLECULE
ZINC000045256503
  60   63    0    0    0
SMALL
USER_CHARGES
NO_NAME
@<TRIPOS>ATOM
    1 C1        0.8151    -2.6769     2.2022 C.3    1 <0>       0.0200
    2 N2        0.4383    -1.2708     2.3998 N.3    1 <0>      -0.5200
    3 C3        0.7866    -0.4622     1.2239 C.3    1 <0>       0.1300
    4 C4        2.2708    -0.2012     1.2154 C.2    1 <0>       0.3000
    5 N5        3.1468    -0.9010     0.5552 N.2    1 <0>      -0.4800
    6 C6        4.3889    -0.3954     0.7679 C.ar   1 <0>       0.0500
    7 C7        5.6632    -0.7488     0.3172 C.ar   1 <0>      -0.0600
    8 C8        6.7516    -0.0264     0.7178 C.ar   1 <0>      -0.1300
    9 C9        6.6063     1.0585     1.5702 C.ar   1 <0>      -0.1000
   10 C10       5.3583     1.4252     2.0280 C.ar   1 <0>      -0.1200
   11 C11       4.2411     0.7035     1.6314 C.ar   1 <0>       0.0500
   12 N12       2.8891     0.8039     1.8922 N.pl3  1 <0>      -0.4900
   13 C13       2.2407     1.8062     2.7414 C.3    1 <0>       0.1200
   14 C14       1.9600     3.0661     1.9199 C.3    1 <0>      -0.1700
   15 C15       1.3916     4.1542     2.8331 C.3    1 <0>      -0.0100
   16 N16       1.1221     5.3638     2.0444 N.4    1 <0>      -0.3900
   17 H17       1.9618     5.6434     1.5598 H      1 <0>       0.4300
   18 C18       0.0623     5.0846     1.0662 C.3    1 <0>      -0.0500
   19 C19       0.6899     6.4457     2.9392 C.3    1 <0>      -0.0500
   20 C20      -0.9905    -1.1485     2.7184 C.3    1 <0>       0.1400
   21 H21      -1.2619    -0.0934     2.7530 H      1 <0>       0.0900
   22 C22      -1.2586    -1.7825     4.0817 C.3    1 <0>      -0.1100
   23 C23      -2.7748    -1.8362     4.3025 C.3    1 <0>      -0.1200
   24 C24      -3.3645    -2.8701     3.3449 C.3    1 <0>      -0.0800
   25 C25      -2.8937    -2.6162     1.9382 C.ar   1 <0>      -0.1100
   26 C26      -3.6043    -3.2036     0.8961 C.ar   1 <0>      -0.0800
   27 C27      -3.1837    -2.9870    -0.4051 C.ar   1 <0>      -0.1600
   28 C28      -2.0721    -2.1956    -0.6234 C.ar   1 <0>       0.1000
   29 N29      -1.4262    -1.6544     0.3866 N.ar   1 <0>      -0.4900
   30 C30      -1.7991    -1.8349     1.6476 C.ar   1 <0>       0.0900
   31 H31       1.8734    -2.7372     1.9484 H      1 <0>       0.0800
   32 H32       0.6290    -3.2353     3.1196 H      1 <0>       0.0700
   33 H33       0.2224    -3.1014     1.3919 H      1 <0>       0.0400
   34 H34       0.5070    -0.9995     0.3177 H      1 <0>       0.1100
   35 H35       0.2511     0.4864     1.2637 H      1 <0>       0.0800
   36 H36       5.7878    -1.5917    -0.3464 H      1 <0>       0.1300
   37 H37       7.7351    -0.3029     0.3675 H      1 <0>       0.1300
   38 H38       7.4765     1.6193     1.8777 H      1 <0>       0.1300
   39 H39       5.2508     2.2702     2.6921 H      1 <0>       0.1200
   40 H40       1.3021     1.4056     3.1244 H      1 <0>       0.1100
   41 H41       2.8968     2.0550     3.5755 H      1 <0>       0.1000
   42 H42       2.8869     3.4189     1.4677 H      1 <0>       0.0900
   43 H43       1.2381     2.8356     1.1364 H      1 <0>       0.0900
   44 H44       0.4648     3.8013     3.2854 H      1 <0>       0.1300
   45 H45       2.1135     4.3846     3.6166 H      1 <0>       0.1400
   46 H46      -0.8448     4.7826     1.5897 H      1 <0>       0.1200
   47 H47      -0.1377     5.9822     0.4810 H      1 <0>       0.1300
   48 H48       0.3830     4.2819     0.4022 H      1 <0>       0.1200
   49 H49       1.4763     6.6529     3.6650 H      1 <0>       0.1200
   50 H50       0.4899     7.3432     2.3540 H      1 <0>       0.1300
   51 H51      -0.2172     6.1436     3.4627 H      1 <0>       0.1200
   52 H52      -0.8494    -2.7925     4.1028 H      1 <0>       0.0800
   53 H53      -0.7957    -1.1801     4.8633 H      1 <0>       0.0800
   54 H54      -2.9860    -2.1265     5.3317 H      1 <0>       0.0800
   55 H55      -3.2102    -0.8577     4.0998 H      1 <0>       0.0700
   56 H56      -3.0509    -3.8670     3.6546 H      1 <0>       0.0800
   57 H57      -4.4524    -2.8101     3.3763 H      1 <0>       0.0800
   58 H58      -4.4689    -3.8183     1.0987 H      1 <0>       0.1400
   59 H59      -3.7150    -3.4291    -1.2350 H      1 <0>       0.1400
   60 H60      -1.7302    -2.0200    -1.6328 H      1 <0>       0.1600
@<TRIPOS>BOND
   1    1    2 1
   2    1   31 1
   3    1   32 1
   4    1   33 1
   5    2    3 1
   6    2   20 1
   7    3    4 1
   8    3   34 1
   9    3   35 1
  10    4   12 1
  11    4    5 2
  12    5    6 1
  13    6   11 ar
  14    6    7 ar
  15    7    8 ar
  16    7   36 1
  17    8    9 ar
  18    8   37 1
  19    9   10 ar
  20    9   38 1
  21   10   11 ar
  22   10   39 1
  23   11   12 1
  24   12   13 1
  25   13   14 1
  26   13   40 1
  27   13   41 1
  28   14   15 1
  29   14   42 1
  30   14   43 1
  31   15   16 1
  32   15   44 1
  33   15   45 1
  34   16   17 1
  35   16   18 1
  36   16   19 1
  37   18   46 1
  38   18   47 1
  39   18   48 1
  40   19   49 1
  41   19   50 1
  42   19   51 1
  43   20   21 1
  44   20   30 1
  45   20   22 1
  46   22   23 1
  47   22   52 1
  48   22   53 1
  49   23   24 1
  50   23   54 1
  51   23   55 1
  52   24   25 1
  53   24   56 1
  54   24   57 1
  55   25   30 ar
  56   25   26 ar
  57   26   27 ar
  58   26   58 1
  59   27   28 ar
  60   27   59 1
  61   28   29 ar
  62   28   60 1
  63   29   30 ar
