@<TRIPOS>MOLECULE
ZINC000028467964
75    79    1     0     0
SMALL
USER_CHARGES
@<TRIPOS>ATOM
1      C1     -4.2481   -3.9405    4.1545 C.3      1 ZINC000028467964   -0.1500
2      C2     -2.9928   -3.6517    3.3287 C.3      1 ZINC000028467964    0.0600
3      O3     -3.3228   -2.7718    2.2522 O.3      1 ZINC000028467964   -0.3000
4      C4     -2.3140   -2.4135    1.4179 C.ar     1 ZINC000028467964    0.2400
5      C5     -1.0354   -2.9013    1.6250 C.ar     1 ZINC000028467964   -0.2500
6      C6     -0.0057   -2.5344    0.7708 C.ar     1 ZINC000028467964    0.1900
7      O7      1.2474   -3.0149    0.9765 O.3      1 ZINC000028467964   -0.3100
8      C8      2.2353   -2.6912   -0.0039 C.3      1 ZINC000028467964    0.0300
9      C9     -0.2523   -1.6766   -0.2954 C.ar     1 ZINC000028467964   -0.2500
10     C10    -1.5207   -1.1855   -0.5107 C.ar     1 ZINC000028467964    0.0000
11     C11    -2.5649   -1.5531    0.3402 C.ar     1 ZINC000028467964   -0.1200
12     C12    -3.9262   -1.0283    0.1123 C.2      1 ZINC000028467964    0.4500
13     N13    -4.1938    0.2355    0.0620 N.2      1 ZINC000028467964   -0.5100
14     C14    -5.6287    0.4408   -0.1765 C.3      1 ZINC000028467964    0.0900
15     H15    -6.0798    0.9834    0.6543 H        1 ZINC000028467964    0.1200
16     C16    -5.8476    1.1823   -1.4701 C.ar     1 ZINC000028467964   -0.0500
17     C17    -5.0580    0.9016   -2.5696 C.ar     1 ZINC000028467964   -0.0800
18     C18    -5.2587    1.5811   -3.7563 C.ar     1 ZINC000028467964   -0.0900
19     C19    -6.2498    2.5421   -3.8438 C.ar     1 ZINC000028467964   -0.0800
20     Br20   -6.5253    3.4717   -5.4673 Br       1 ZINC000028467964   -0.0500
21     C21    -7.0396    2.8226   -2.7434 C.ar     1 ZINC000028467964   -0.0900
22     C22    -6.8417    2.1389   -1.5586 C.ar     1 ZINC000028467964   -0.1000
23     C23    -6.2047   -0.9862   -0.2651 C.3      1 ZINC000028467964    0.1300
24     H24    -6.9386   -1.1541    0.5231 H        1 ZINC000028467964    0.1200
25     C25    -6.8179   -1.2285   -1.6202 C.ar     1 ZINC000028467964   -0.0700
26     C26    -6.0540   -1.7691   -2.6377 C.ar     1 ZINC000028467964   -0.0900
27     C27    -6.6161   -1.9920   -3.8806 C.ar     1 ZINC000028467964   -0.0800
28     C28    -7.9432   -1.6740   -4.1063 C.ar     1 ZINC000028467964   -0.0800
29     Br29   -8.7131   -1.9792   -5.8063 Br       1 ZINC000028467964   -0.0500
30     C30    -8.7072   -1.1331   -3.0879 C.ar     1 ZINC000028467964   -0.0800
31     C31    -8.1457   -0.9155   -1.8438 C.ar     1 ZINC000028467964   -0.1000
32     N32    -5.0224   -1.8422   -0.0713 N.am     1 ZINC000028467964   -0.5800
33     C33    -5.0153   -3.1900   -0.0663 C.2      1 ZINC000028467964    0.7300
34     O34    -3.9596   -3.7923   -0.0897 O.2      1 ZINC000028467964   -0.5500
35     N35    -6.1785   -3.8699   -0.0353 N.am     1 ZINC000028467964   -0.6100
36     C36    -7.4676   -3.1626   -0.0731 C.3      1 ZINC000028467964    0.0400
37     C37    -8.3303   -3.7817   -1.1779 C.3      1 ZINC000028467964    0.0500
38     N38    -8.4237   -5.2325   -0.9667 N.3      1 ZINC000028467964   -0.5200
39     C39    -9.3799   -5.8401   -1.9019 C.3      1 ZINC000028467964    0.0600
40     C40    -9.7517   -7.2412   -1.4125 C.3      1 ZINC000028467964    0.0800
41     O41   -10.4496   -7.1420   -0.1695 O.3      1 ZINC000028467964   -0.5600
42     C42    -7.1056   -5.8723   -1.0718 C.3      1 ZINC000028467964    0.0400
43     C43    -6.1926   -5.3391    0.0312 C.3      1 ZINC000028467964    0.1400
44     H44    -3.9964   -4.6117    4.9756 H        1 ZINC000028467964    0.0800
45     H45    -4.6416   -3.0067    4.5560 H        1 ZINC000028467964    0.0600
46     H46    -5.0006   -4.4088    3.5200 H        1 ZINC000028467964    0.0600
47     H47    -2.2404   -3.1833    3.9632 H        1 ZINC000028467964    0.0600
48     H48    -2.5993   -4.5855    2.9271 H        1 ZINC000028467964    0.0700
49     H49    -0.8391   -3.5675    2.4521 H        1 ZINC000028467964    0.1400
50     H50     1.8870   -3.0049   -0.9880 H        1 ZINC000028467964    0.0600
51     H51     2.4068   -1.6148   -0.0053 H        1 ZINC000028467964    0.0600
52     H52     3.1656   -3.2071    0.2337 H        1 ZINC000028467964    0.1000
53     H53     0.5536   -1.3944   -0.9566 H        1 ZINC000028467964    0.1300
54     H54    -1.7085   -0.5192   -1.3397 H        1 ZINC000028467964    0.1300
55     H55    -4.2840    0.1516   -2.5011 H        1 ZINC000028467964    0.1200
56     H56    -4.6416    1.3621   -4.6151 H        1 ZINC000028467964    0.1300
57     H57    -7.8136    3.5728   -2.8112 H        1 ZINC000028467964    0.1300
58     H58    -7.4583    2.3578   -0.6993 H        1 ZINC000028467964    0.1300
59     H59    -5.0177   -2.0171   -2.4615 H        1 ZINC000028467964    0.1200
60     H60    -6.0191   -2.4140   -4.6755 H        1 ZINC000028467964    0.1300
61     H61    -9.7435   -0.8847   -3.2636 H        1 ZINC000028467964    0.1400
62     H62    -8.7421   -0.4931   -1.0486 H        1 ZINC000028467964    0.1400
63     H63    -7.9716   -3.2683    0.8876 H        1 ZINC000028467964    0.0700
64     H64    -7.2999   -2.1071   -0.2876 H        1 ZINC000028467964    0.1400
65     H65    -9.3284   -3.3448   -1.1479 H        1 ZINC000028467964    0.0800
66     H66    -7.8753   -3.5841   -2.1485 H        1 ZINC000028467964    0.0400
67     H67   -10.2774   -5.2239   -1.9554 H        1 ZINC000028467964    0.0800
68     H68    -8.9270   -5.9090   -2.8909 H        1 ZINC000028467964    0.0500
69     H69   -10.3908   -7.7261   -2.1504 H        1 ZINC000028467964    0.0500
70     H70    -8.8450   -7.8302   -1.2741 H        1 ZINC000028467964    0.0400
71     H71   -10.7169   -7.9944    0.2007 H        1 ZINC000028467964    0.3800
72     H72    -7.2155   -6.9514   -0.9648 H        1 ZINC000028467964    0.0900
73     H73    -6.6676   -5.6455   -2.0438 H        1 ZINC000028467964    0.0400
74     H74    -5.1827   -5.7234   -0.1117 H        1 ZINC000028467964    0.1000
75     H75    -6.5723   -5.6521    1.0039 H        1 ZINC000028467964    0.0800
@<TRIPOS>BOND
1     1     2     1
2     1     44    1
3     1     45    1
4     1     46    1
5     2     3     1
6     2     47    1
7     2     48    1
8     3     4     1
9     4     11    ar
10    4     5     ar
11    5     6     ar
12    5     49    1
13    6     7     1
14    6     9     ar
15    7     8     1
16    8     50    1
17    8     51    1
18    8     52    1
19    9     10    ar
20    9     53    1
21    10    11    ar
22    10    54    1
23    11    12    1
24    12    32    1
25    12    13    2
26    13    14    1
27    14    15    1
28    14    16    1
29    14    23    1
30    16    22    ar
31    16    17    ar
32    17    18    ar
33    17    55    1
34    18    19    ar
35    18    56    1
36    19    20    1
37    19    21    ar
38    21    22    ar
39    21    57    1
40    22    58    1
41    23    24    1
42    23    25    1
43    23    32    1
44    25    31    ar
45    25    26    ar
46    26    27    ar
47    26    59    1
48    27    28    ar
49    27    60    1
50    28    29    1
51    28    30    ar
52    30    31    ar
53    30    61    1
54    31    62    1
55    32    33    am
56    33    34    2
57    33    35    am
58    35    43    1
59    35    36    1
60    36    37    1
61    36    63    1
62    36    64    1
63    37    38    1
64    37    65    1
65    37    66    1
66    38    39    1
67    38    42    1
68    39    40    1
69    39    67    1
70    39    68    1
71    40    41    1
72    40    69    1
73    40    70    1
74    41    71    1
75    42    43    1
76    42    72    1
77    42    73    1
78    43    74    1
79    43    75    1
@<TRIPOS>SUBSTRUCTURE
1   ZINC000028467964 1     RESIDUE    1   A     ZIN   1
