@<TRIPOS>MOLECULE
ZINC000072109192
  37   39    0    0    0
SMALL
USER_CHARGES
NO_NAME
@<TRIPOS>ATOM
    1 N1       -1.9742    -2.2342    -1.5762 N.pl3  1 <0>      -0.8200
    2 C2       -0.9515    -1.7646    -0.7705 C.ar   1 <0>       0.5700
    3 N3       -1.1650    -0.6998    -0.0112 N.ar   1 <0>      -0.5700
    4 C4       -0.2125    -0.2197     0.7733 C.ar   1 <0>       0.1900
    5 C5        1.0220    -0.8421     0.7972 C.ar   1 <0>      -0.2800
    6 C6        1.2184    -1.9636    -0.0145 C.ar   1 <0>       0.2600
    7 C7        2.5231    -2.6658    -0.0247 C.ar   1 <0>      -0.0300
    8 C8        3.7077    -1.9390    -0.1258 C.ar   1 <0>      -0.1500
    9 C9        4.9249    -2.6015    -0.1342 C.ar   1 <0>       0.2300
   10 N10       6.1159    -1.8735    -0.2352 N.pl3  1 <0>      -0.6300
   11 C11       6.2202    -0.4102    -0.3318 C.3    1 <0>       0.0800
   12 C12       7.7195    -0.0644    -0.4495 C.3    1 <0>       0.1000
   13 H13       8.1342     0.1906     0.5258 H      1 <0>       0.0900
   14 O14       7.9208     1.0036    -1.3773 O.3    1 <0>      -0.5500
   15 C15       8.3396    -1.3833    -0.9818 C.3    1 <0>       0.1000
   16 H16       8.2300    -1.4578    -2.0637 H      1 <0>       0.0900
   17 O17       9.7121    -1.4948    -0.5999 O.3    1 <0>      -0.5500
   18 C18       7.4741    -2.4466    -0.2559 C.3    1 <0>       0.0900
   19 C19       4.9647    -3.9877    -0.0422 C.ar   1 <0>      -0.1600
   20 C20       3.7931    -4.7124     0.0581 C.ar   1 <0>      -0.1000
   21 C21       2.5705    -4.0603     0.0729 C.ar   1 <0>       0.0900
   22 O22       1.4192    -4.7750     0.1721 O.3    1 <0>      -0.4800
   23 N23       0.2132    -2.3939    -0.7742 N.ar   1 <0>      -0.5400
   24 H24      -1.8326    -3.0151    -2.1340 H      1 <0>       0.4200
   25 H25      -2.8339    -1.7849    -1.5800 H      1 <0>       0.4100
   26 H26      -0.3977     0.6490     1.3876 H      1 <0>       0.1700
   27 H27       1.8161    -0.4705     1.4279 H      1 <0>       0.1400
   28 H28       3.6773    -0.8618    -0.1977 H      1 <0>       0.1300
   29 H29       5.6881    -0.0582    -1.2156 H      1 <0>       0.0800
   30 H30       5.8025     0.0511     0.5631 H      1 <0>       0.0700
   31 H31       7.4868     1.8303    -1.1257 H      1 <0>       0.3900
   32 H32      10.1422    -2.3034    -0.9100 H      1 <0>       0.3900
   33 H33       7.8400    -2.6054     0.7585 H      1 <0>       0.0800
   34 H34       7.4783    -3.3836    -0.8126 H      1 <0>       0.0800
   35 H35       5.9153    -4.5002    -0.0495 H      1 <0>       0.1300
   36 H36       3.8301    -5.7894     0.1294 H      1 <0>       0.1400
   37 H37       1.1268    -4.9254     1.0815 H      1 <0>       0.3800
@<TRIPOS>BOND
   1    1    2 1
   2    1   24 1
   3    1   25 1
   4    2   23 ar
   5    2    3 ar
   6    3    4 ar
   7    4    5 ar
   8    4   26 1
   9    5    6 ar
  10    5   27 1
  11    6    7 1
  12    6   23 ar
  13    7   21 ar
  14    7    8 ar
  15    8    9 ar
  16    8   28 1
  17    9   10 1
  18    9   19 ar
  19   10   18 1
  20   10   11 1
  21   11   12 1
  22   11   29 1
  23   11   30 1
  24   12   13 1
  25   12   14 1
  26   12   15 1
  27   14   31 1
  28   15   16 1
  29   15   17 1
  30   15   18 1
  31   17   32 1
  32   18   33 1
  33   18   34 1
  34   19   20 ar
  35   19   35 1
  36   20   21 ar
  37   20   36 1
  38   21   22 1
  39   22   37 1
