@<TRIPOS>MOLECULE
ZINC000003888893
  37   39    0    0    0
SMALL
USER_CHARGES
NO_NAME
@<TRIPOS>ATOM
    1 C1       -0.0187     1.5258     0.0104 C.3    1 <0>      -0.1700
    2 C2        0.0021    -0.0041     0.0020 C.3    1 <0>       0.1000
    3 N3       -1.3723    -0.5112     0.0124 N.pl3  1 <0>      -0.5000
    4 C4       -2.1054    -0.7853     1.1532 C.ar   1 <0>       0.1400
    5 C5       -3.3703    -1.2507     0.7648 C.ar   1 <0>      -0.1100
    6 C6       -4.3114    -1.6015     1.7300 C.ar   1 <0>      -0.0600
    7 C7       -3.9953    -1.4897     3.0667 C.ar   1 <0>      -0.1400
    8 C8       -2.7454    -1.0298     3.4525 C.ar   1 <0>      -0.0700
    9 C9       -1.8051    -0.6794     2.5080 C.ar   1 <0>      -0.1400
   10 C10      -3.3817    -1.2501    -0.7096 C.ar   1 <0>      -0.1000
   11 C11      -2.1250    -0.7788    -1.1171 C.ar   1 <0>       0.1800
   12 C12      -1.8460    -0.6707    -2.4763 C.ar   1 <0>      -0.1400
   13 C13      -2.7991    -1.0247    -3.4065 C.ar   1 <0>      -0.0600
   14 C14      -4.0410    -1.4900    -3.0018 C.ar   1 <0>      -0.2100
   15 C15      -5.0718    -1.8724    -4.0325 C.3    1 <0>       0.0500
   16 N16      -4.9219    -3.2939    -4.3710 N.4    1 <0>      -0.5100
   17 H17      -3.9981    -3.4554    -4.7433 H      1 <0>       0.4300
   18 H18      -5.0526    -3.8529    -3.5412 H      1 <0>       0.4300
   19 C19      -5.9268    -3.6667    -5.3757 C.3    1 <0>      -0.0500
   20 C20      -4.3377    -1.5997    -1.6605 C.ar   1 <0>      -0.0300
   21 H21       1.0039     1.9031     0.0027 H      1 <0>       0.0800
   22 H22      -0.5459     1.8868    -0.8726 H      1 <0>       0.0600
   23 H23      -0.5289     1.8773     0.9072 H      1 <0>       0.0600
   24 H24       0.5123    -0.3556    -0.8948 H      1 <0>       0.0900
   25 H25       0.5293    -0.3651     0.8851 H      1 <0>       0.0900
   26 H26      -5.2857    -1.9596     1.4318 H      1 <0>       0.1300
   27 H27      -4.7239    -1.7609     3.8164 H      1 <0>       0.1300
   28 H28      -2.5067    -0.9455     4.5024 H      1 <0>       0.1400
   29 H29      -0.8344    -0.3228     2.8193 H      1 <0>       0.1300
   30 H30      -0.8821    -0.3087    -2.8022 H      1 <0>       0.1300
   31 H31      -2.5769    -0.9387    -4.4599 H      1 <0>       0.1400
   32 H32      -6.0698    -1.6979    -3.6303 H      1 <0>       0.1300
   33 H33      -4.9307    -1.2685    -4.9289 H      1 <0>       0.1400
   34 H34      -5.8155    -4.7215    -5.6269 H      1 <0>       0.1200
   35 H35      -6.9247    -3.4922    -4.9735 H      1 <0>       0.1200
   36 H36      -5.7856    -3.0628    -6.2721 H      1 <0>       0.1200
   37 H37      -5.3057    -1.9623    -1.3476 H      1 <0>       0.1300
@<TRIPOS>BOND
   1    1    2 1
   2    1   21 1
   3    1   22 1
   4    1   23 1
   5    2    3 1
   6    2   24 1
   7    2   25 1
   8    3   11 1
   9    3    4 1
  10    4    9 ar
  11    4    5 ar
  12    5    6 ar
  13    5   10 1
  14    6    7 ar
  15    6   26 1
  16    7    8 ar
  17    7   27 1
  18    8    9 ar
  19    8   28 1
  20    9   29 1
  21   10   20 ar
  22   10   11 ar
  23   11   12 ar
  24   12   13 ar
  25   12   30 1
  26   13   14 ar
  27   13   31 1
  28   14   15 1
  29   14   20 ar
  30   15   16 1
  31   15   32 1
  32   15   33 1
  33   16   17 1
  34   16   18 1
  35   16   19 1
  36   19   34 1
  37   19   35 1
  38   19   36 1
  39   20   37 1
