@<TRIPOS>MOLECULE
ZINC000043207770
61    63    1     0     0
SMALL
USER_CHARGES
@<TRIPOS>ATOM
1      C1     -0.0187    1.5258    0.0104 C.3      1 ZINC000043207770   -0.1400
2      C2      0.0021   -0.0041    0.0020 C.3      1 ZINC000043207770    0.0000
3      C3      0.7421   -0.5109    1.2415 C.3      1 ZINC000043207770   -0.1400
4      C4     -1.4117   -0.5257    0.0127 C.2      1 ZINC000043207770   -0.2600
5      C5     -1.9944   -1.3342   -0.9534 C.2      1 ZINC000043207770    0.3400
6      N6     -1.5278   -1.8586   -2.0964 N.2      1 ZINC000043207770   -0.5700
7      C7     -2.2978   -2.6142   -2.8605 C.2      1 ZINC000043207770    0.4900
8      N8     -1.7950   -3.1454   -4.0367 N.pl3    1 ZINC000043207770   -0.7100
9      C9     -0.4117   -2.8696   -4.4326 C.3      1 ZINC000043207770    0.1300
10     C10    -0.1119   -3.5692   -5.7598 C.3      1 ZINC000043207770   -0.1300
11     C11     1.3328   -3.2812   -6.1732 C.3      1 ZINC000043207770   -0.1200
12     C12     1.6326   -3.9807   -7.5005 C.3      1 ZINC000043207770   -0.1200
13     C13     3.0773   -3.6927   -7.9138 C.3      1 ZINC000043207770   -0.1500
14     C14     3.3771   -4.3922   -9.2411 C.3      1 ZINC000043207770   -0.0100
15     N15     4.7642   -4.1157   -9.6380 N.4      1 ZINC000043207770   -0.6400
16     H16     4.9619   -4.5771  -10.5133 H        1 ZINC000043207770    0.4400
17     H17     4.8910   -3.1206   -9.7461 H        1 ZINC000043207770    0.4400
18     H18     5.3923   -4.4596   -8.9272 H        1 ZINC000043207770    0.4400
19     C19    -3.6236   -2.8801   -2.4828 C.2      1 ZINC000043207770   -0.3700
20     C20    -4.1065   -2.3507   -1.3217 C.2      1 ZINC000043207770    0.5100
21     N21    -5.4051   -2.5972   -0.9279 N.pl3    1 ZINC000043207770   -0.7100
22     C22    -6.2764   -3.4324   -1.7583 C.3      1 ZINC000043207770    0.1700
23     C23    -7.6320   -3.5443   -1.1097 C.ar     1 ZINC000043207770   -0.1200
24     C24    -7.8870   -4.5648   -0.2128 C.ar     1 ZINC000043207770   -0.1000
25     C25    -9.1305   -4.6674    0.3822 C.ar     1 ZINC000043207770   -0.1200
26     C26   -10.1189   -3.7493    0.0806 C.ar     1 ZINC000043207770   -0.1000
27     C27    -9.8637   -2.7283   -0.8157 C.ar     1 ZINC000043207770   -0.1200
28     C28    -8.6188   -2.6231   -1.4074 C.ar     1 ZINC000043207770   -0.1000
29     N29    -3.2825   -1.5703   -0.5510 N.pl3    1 ZINC000043207770   -0.3600
30     N30    -3.4787   -0.9010    0.6623 N.2      1 ZINC000043207770   -0.3300
31     C31    -2.3657   -0.2894    0.9941 C.2      1 ZINC000043207770    0.1100
32     H32     1.0039    1.9031    0.0027 H        1 ZINC000043207770    0.0500
33     H33    -0.5459    1.8868   -0.8726 H        1 ZINC000043207770    0.0500
34     H34    -0.5289    1.8773    0.9072 H        1 ZINC000043207770    0.0500
35     H35     0.5123   -0.3556   -0.8948 H        1 ZINC000043207770    0.0800
36     H36     0.2319   -0.1594    2.1383 H        1 ZINC000043207770    0.0500
37     H37     0.7568   -1.6008    1.2356 H        1 ZINC000043207770    0.0500
38     H38     1.7647   -0.1336    1.2338 H        1 ZINC000043207770    0.0500
39     H39    -2.3588   -3.7000   -4.5984 H        1 ZINC000043207770    0.4100
40     H40    -0.2746   -1.7946   -4.5494 H        1 ZINC000043207770    0.0700
41     H41     0.2669   -3.2411   -3.6647 H        1 ZINC000043207770    0.0700
42     H42    -0.2489   -4.6442   -5.6430 H        1 ZINC000043207770    0.0700
43     H43    -0.7904   -3.1977   -6.5277 H        1 ZINC000043207770    0.0700
44     H44     1.4699   -2.2061   -6.2900 H        1 ZINC000043207770    0.0700
45     H45     2.0114   -3.6526   -5.4053 H        1 ZINC000043207770    0.0700
46     H46     1.4956   -5.0557   -7.3837 H        1 ZINC000043207770    0.0700
47     H47     0.9540   -3.6092   -8.2684 H        1 ZINC000043207770    0.0700
48     H48     3.2143   -2.6177   -8.0306 H        1 ZINC000043207770    0.0900
49     H49     3.7558   -4.0642   -7.1459 H        1 ZINC000043207770    0.0900
50     H50     3.2400   -5.4673   -9.1243 H        1 ZINC000043207770    0.1300
51     H51     2.6985   -4.0208  -10.0090 H        1 ZINC000043207770    0.1300
52     H52    -4.2549   -3.4970   -3.1051 H        1 ZINC000043207770    0.1500
53     H53    -5.7416   -2.2175   -0.1012 H        1 ZINC000043207770    0.4200
54     H54    -6.3816   -2.9797   -2.7443 H        1 ZINC000043207770    0.0800
55     H55    -5.8388   -4.4256   -1.8593 H        1 ZINC000043207770    0.0800
56     H56    -7.1148   -5.2821    0.0229 H        1 ZINC000043207770    0.1200
57     H57    -9.3299   -5.4651    1.0824 H        1 ZINC000043207770    0.1300
58     H58   -11.0907   -3.8299    0.5449 H        1 ZINC000043207770    0.1300
59     H59   -10.6360   -2.0112   -1.0516 H        1 ZINC000043207770    0.1300
60     H60    -8.4194   -1.8254   -2.1076 H        1 ZINC000043207770    0.1200
61     H61    -2.2181    0.3071    1.8822 H        1 ZINC000043207770    0.1900
@<TRIPOS>BOND
1     1     2     1
2     1     32    1
3     1     33    1
4     1     34    1
5     2     3     1
6     2     4     1
7     2     35    1
8     3     36    1
9     3     37    1
10    3     38    1
11    4     31    1
12    4     5     2
13    5     29    1
14    5     6     1
15    6     7     2
16    7     8     1
17    7     19    1
18    8     9     1
19    8     39    1
20    9     10    1
21    9     40    1
22    9     41    1
23    10    11    1
24    10    42    1
25    10    43    1
26    11    12    1
27    11    44    1
28    11    45    1
29    12    13    1
30    12    46    1
31    12    47    1
32    13    14    1
33    13    48    1
34    13    49    1
35    14    15    1
36    14    50    1
37    14    51    1
38    15    16    1
39    15    17    1
40    15    18    1
41    19    20    2
42    19    52    1
43    20    21    1
44    20    29    1
45    21    22    1
46    21    53    1
47    22    23    1
48    22    54    1
49    22    55    1
50    23    28    ar
51    23    24    ar
52    24    25    ar
53    24    56    1
54    25    26    ar
55    25    57    1
56    26    27    ar
57    26    58    1
58    27    28    ar
59    27    59    1
60    28    60    1
61    29    30    1
62    30    31    2
63    31    61    1
@<TRIPOS>SUBSTRUCTURE
1   ZINC000043207770 1     RESIDUE    1   A     ZIN   1
