@<TRIPOS>MOLECULE
ZINC000001999542
  56   58    0    0    0
SMALL
USER_CHARGES
NO_NAME
@<TRIPOS>ATOM
    1 C1        0.0020     1.5720    -0.2152 C.3    1 <0>      -0.1500
    2 C2        0.0335     0.0442    -0.1384 C.3    1 <0>      -0.0800
    3 C3       -1.3850    -0.4846     0.0829 C.3    1 <0>      -0.0900
    4 C4       -1.3745    -2.0134     0.0230 C.3    1 <0>      -0.1200
    5 C5       -2.7930    -2.5423     0.2443 C.3    1 <0>      -0.1200
    6 C6       -3.2981    -2.0891     1.6156 C.3    1 <0>      -0.1200
    7 C7       -3.3087    -0.5603     1.6755 C.3    1 <0>      -0.1200
    8 C8       -1.8902    -0.0314     1.4542 C.3    1 <0>      -0.1200
    9 C9        0.5901    -0.5208    -1.4468 C.3    1 <0>      -0.0900
   10 C10      -0.3514    -0.1627    -2.5984 C.3    1 <0>      -0.1200
   11 C11       0.2052    -0.7277    -3.9067 C.3    1 <0>      -0.1200
   12 C12       1.5878    -0.1292    -4.1734 C.3    1 <0>      -0.1200
   13 C13       2.5293    -0.4873    -3.0218 C.3    1 <0>      -0.1200
   14 C14       1.9727     0.0778    -1.7134 C.3    1 <0>      -0.1200
   15 C15       1.3365     2.1350     0.2776 C.3    1 <0>       0.0100
   16 H16       2.1525     1.6753    -0.2801 H      1 <0>       0.1500
   17 C17       1.3615     3.6496     0.0613 C.3    1 <0>      -0.1400
   18 C18       2.6989     4.2084     0.5557 C.3    1 <0>      -0.1400
   19 C19       2.8866     3.8292     2.0275 C.3    1 <0>      -0.1500
   20 C20       2.8051     2.3079     2.1709 C.3    1 <0>      -0.0100
   21 N21       1.4939     1.8392     1.7067 N.4    1 <0>      -0.5100
   22 H22       0.7670     2.3057     2.2284 H      1 <0>       0.4200
   23 H23       1.4235     0.8430     1.8510 H      1 <0>       0.4200
   24 H24      -0.1636     1.8806    -1.2474 H      1 <0>       0.1200
   25 H25      -0.8056     1.9507     0.4113 H      1 <0>       0.0900
   26 H26       0.6700    -0.2648     0.6908 H      1 <0>       0.0600
   27 H27      -2.0433    -0.0951    -0.6937 H      1 <0>       0.0800
   28 H28      -1.0146    -2.3363    -0.9539 H      1 <0>       0.0700
   29 H29      -0.7162    -2.4029     0.7996 H      1 <0>       0.0600
   30 H30      -3.4513    -2.1528    -0.5323 H      1 <0>       0.0600
   31 H31      -2.7855    -3.6314     0.2016 H      1 <0>       0.0700
   32 H32      -4.3087    -2.4659     1.7732 H      1 <0>       0.0700
   33 H33      -2.6399    -2.4786     2.3921 H      1 <0>       0.0600
   34 H34      -3.9669    -0.1708     0.8989 H      1 <0>       0.0700
   35 H35      -3.6685    -0.2375     2.6524 H      1 <0>       0.0600
   36 H36      -1.2319    -0.4209     2.2308 H      1 <0>       0.0600
   37 H37      -1.8977     1.0577     1.4968 H      1 <0>       0.0600
   38 H38       0.6725    -1.6048    -1.3684 H      1 <0>       0.0900
   39 H39      -1.3364    -0.5891    -2.4084 H      1 <0>       0.0700
   40 H40      -0.4338     0.9214    -2.6767 H      1 <0>       0.0600
   41 H41       0.2876    -1.8118    -3.8284 H      1 <0>       0.0600
   42 H42      -0.4655    -0.4726    -4.7271 H      1 <0>       0.0700
   43 H43       1.9844    -0.5317    -5.1055 H      1 <0>       0.0700
   44 H44       1.5055     0.9549    -4.2517 H      1 <0>       0.0600
   45 H45       2.6117    -1.5713    -2.9435 H      1 <0>       0.0700
   46 H46       3.5143    -0.0608    -3.2118 H      1 <0>       0.0600
   47 H47       1.8904     1.1618    -1.7917 H      1 <0>       0.0700
   48 H48       2.6435    -0.1773    -0.8930 H      1 <0>       0.0600
   49 H49       1.2461     3.8676    -1.0004 H      1 <0>       0.1100
   50 H50       0.5461     4.1104     0.6189 H      1 <0>       0.0900
   51 H51       3.5113     3.7864    -0.0359 H      1 <0>       0.0800
   52 H52       2.6995     5.2939     0.4560 H      1 <0>       0.0900
   53 H53       3.8613     4.1756     2.3711 H      1 <0>       0.1100
   54 H54       2.1028     4.2937     2.6258 H      1 <0>       0.0900
   55 H55       3.5894     1.8445     1.5724 H      1 <0>       0.1300
   56 H56       2.9386     2.0345     3.2176 H      1 <0>       0.1300
@<TRIPOS>BOND
   1    1    2 1
   2    1   15 1
   3    1   24 1
   4    1   25 1
   5    2    3 1
   6    2    9 1
   7    2   26 1
   8    3    8 1
   9    3    4 1
  10    3   27 1
  11    4    5 1
  12    4   28 1
  13    4   29 1
  14    5    6 1
  15    5   30 1
  16    5   31 1
  17    6    7 1
  18    6   32 1
  19    6   33 1
  20    7    8 1
  21    7   34 1
  22    7   35 1
  23    8   36 1
  24    8   37 1
  25    9   14 1
  26    9   10 1
  27    9   38 1
  28   10   11 1
  29   10   39 1
  30   10   40 1
  31   11   12 1
  32   11   41 1
  33   11   42 1
  34   12   13 1
  35   12   43 1
  36   12   44 1
  37   13   14 1
  38   13   45 1
  39   13   46 1
  40   14   47 1
  41   14   48 1
  42   15   16 1
  43   15   21 1
  44   15   17 1
  45   17   18 1
  46   17   49 1
  47   17   50 1
  48   18   19 1
  49   18   51 1
  50   18   52 1
  51   19   20 1
  52   19   53 1
  53   19   54 1
  54   20   21 1
  55   20   55 1
  56   20   56 1
  57   21   22 1
  58   21   23 1
