@<TRIPOS>MOLECULE
ZINC000003873079
56    58    1     0     0
SMALL
USER_CHARGES
@<TRIPOS>ATOM
1      C1     -0.0184    1.5040    0.0103 C.3      1 ZINC000003873079   -0.1300
2      C2      0.0021   -0.0041    0.0020 C.2      1 ZINC000003873079   -0.0100
3      C3      0.0118   -0.6359   -1.1647 C.2      1 ZINC000003873079   -0.2300
4      C4      0.0139   -2.0916   -1.2736 C.2      1 ZINC000003873079    0.5100
5      O5     -0.4829   -2.7415   -0.3725 O.2      1 ZINC000003873079   -0.4900
6      O6      0.5234   -2.7237   -2.3395 O.3      1 ZINC000003873079   -0.3600
7      C7      1.2817   -3.9326   -2.1569 C.3      1 ZINC000003873079    0.1100
8      H8      2.2532   -3.8140   -2.6531 H        1 ZINC000003873079    0.0900
9      C9      1.5579   -4.1546   -0.6702 C.3      1 ZINC000003873079   -0.2100
10     C10     2.4411   -5.3902   -0.4843 C.3      1 ZINC000003873079    0.1000
11     H11     3.3989   -5.2240   -0.9832 H        1 ZINC000003873079    0.0600
12     C12     2.6752   -5.6529    1.0008 C.3      1 ZINC000003873079   -0.1100
13     C13     1.9908   -4.6123    1.8808 C.3      1 ZINC000003873079   -0.1300
14     C14     2.9978   -3.7374    2.6186 C.3      1 ZINC000003873079   -0.0600
15     H15     3.5665   -4.3850    3.3082 H        1 ZINC000003873079    0.0700
16     C16     3.9909   -3.0830    1.6640 C.3      1 ZINC000003873079   -0.1500
17     C17     2.2883   -2.7005    3.4395 C.2      1 ZINC000003873079   -0.1500
18     C18     1.5965   -1.7046    2.9747 C.2      1 ZINC000003873079   -0.1500
19     C19     1.3838   -1.4103    1.5195 C.3      1 ZINC000003873079   -0.1000
20     C20     0.0246   -0.7449    1.3128 C.3      1 ZINC000003873079   -0.1100
21     O21     1.7946   -6.5089   -1.0963 O.3      1 ZINC000003873079   -0.3800
22     C22     1.5068   -6.3912   -2.4867 C.3      1 ZINC000003873079    0.2900
23     O23     2.7245   -6.2276   -3.2182 O.3      1 ZINC000003873079   -0.5500
24     C24     0.7928   -7.6565   -2.9710 C.3      1 ZINC000003873079    0.1600
25     H25    -0.1420   -7.7691   -2.4219 H        1 ZINC000003873079    0.1200
26     C26     1.6860   -8.8726   -2.6934 C.3      1 ZINC000003873079   -0.0900
27     S27     1.9610   -9.5997   -4.3398 S.3      1 ZINC000003873079   -0.1600
28     C28     1.0005   -8.4120   -5.2282 C.2      1 ZINC000003873079    0.5500
29     O29     0.8262   -8.4102   -6.4319 O.2      1 ZINC000003873079   -0.4800
30     N30     0.4988   -7.5220   -4.3798 N.am     1 ZINC000003873079   -0.7100
31     C31     0.5993   -5.1711   -2.7234 C.3      1 ZINC000003873079   -0.1900
32     H32     1.0042    1.8813    0.0026 H        1 ZINC000003873079    0.0800
33     H33    -0.5456    1.8651   -0.8728 H        1 ZINC000003873079    0.0800
34     H34    -0.5286    1.8556    0.9071 H        1 ZINC000003873079    0.0800
35     H35     0.0175   -0.0305   -2.0744 H        1 ZINC000003873079    0.1400
36     H36     2.0607   -3.2789   -0.2765 H        1 ZINC000003873079    0.0900
37     H37     0.6067   -4.3366   -0.1668 H        1 ZINC000003873079    0.1200
38     H38     2.2643   -6.6460    1.2435 H        1 ZINC000003873079    0.0800
39     H39     3.7464   -5.6902    1.2047 H        1 ZINC000003873079    0.0800
40     H40     1.2851   -3.9988    1.3415 H        1 ZINC000003873079    0.0900
41     H41     1.4017   -5.1557    2.6470 H        1 ZINC000003873079    0.0600
42     H42     3.4524   -2.4572    0.9523 H        1 ZINC000003873079    0.0500
43     H43     4.6899   -2.4688    2.2317 H        1 ZINC000003873079    0.0600
44     H44     4.5402   -3.8553    1.1256 H        1 ZINC000003873079    0.0600
45     H45     2.3656   -2.7948    4.5342 H        1 ZINC000003873079    0.1000
46     H46     1.1361   -1.0362    3.7067 H        1 ZINC000003873079    0.1000
47     H47     2.1661   -0.7348    1.1677 H        1 ZINC000003873079    0.0700
48     H48     1.4122   -2.3282    0.9422 H        1 ZINC000003873079    0.0800
49     H49    -0.1480   -0.0351    2.1267 H        1 ZINC000003873079    0.0700
50     H50    -0.7578   -1.4989    1.3295 H        1 ZINC000003873079    0.1000
51     H51     3.2323   -5.4441   -2.9664 H        1 ZINC000003873079    0.3800
52     H52     2.6317   -8.5594   -2.2510 H        1 ZINC000003873079    0.1300
53     H53     1.1747   -9.5820   -2.0427 H        1 ZINC000003873079    0.1200
54     H54    -0.0577   -6.7944   -4.6990 H        1 ZINC000003873079    0.4100
55     H55    -0.3547   -5.3280   -2.2215 H        1 ZINC000003873079    0.1000
56     H56     0.4361   -5.0431   -3.7934 H        1 ZINC000003873079    0.1000
@<TRIPOS>BOND
1     1     2     1
2     1     32    1
3     1     33    1
4     1     34    1
5     2     20    1
6     2     3     2
7     3     4     1
8     3     35    1
9     4     5     2
10    4     6     1
11    6     7     1
12    7     8     1
13    7     31    1
14    7     9     1
15    9     10    1
16    9     36    1
17    9     37    1
18    10    11    1
19    10    12    1
20    10    21    1
21    12    13    1
22    12    38    1
23    12    39    1
24    13    14    1
25    13    40    1
26    13    41    1
27    14    15    1
28    14    16    1
29    14    17    1
30    16    42    1
31    16    43    1
32    16    44    1
33    17    18    2
34    17    45    1
35    18    19    1
36    18    46    1
37    19    20    1
38    19    47    1
39    19    48    1
40    20    49    1
41    20    50    1
42    21    22    1
43    22    23    1
44    22    24    1
45    22    31    1
46    23    51    1
47    24    25    1
48    24    30    1
49    24    26    1
50    26    27    1
51    26    52    1
52    26    53    1
53    27    28    1
54    28    29    2
55    28    30    am
56    30    54    1
57    31    55    1
58    31    56    1
@<TRIPOS>SUBSTRUCTURE
1   ZINC000003873079 1     RESIDUE    1   A     ZIN   1
