@<TRIPOS>MOLECULE
ZINC000103281736
60    64    1     0     0
SMALL
USER_CHARGES
@<TRIPOS>ATOM
1      C1     -0.2979    1.3846    2.8150 C.3      1 ZINC000103281736   -0.1500
2      C2     -0.2585   -0.1241    2.5636 C.3      1 ZINC000103281736    0.0600
3      O3     -1.4398   -0.5216    1.8187 O.3      1 ZINC000103281736   -0.3300
4      C4     -1.5594   -1.8286    1.5134 C.2      1 ZINC000103281736    0.5700
5      O5     -0.7004   -2.6144    1.8600 O.2      1 ZINC000103281736   -0.4700
6      C6     -2.7347   -2.3056    0.7576 C.2      1 ZINC000103281736   -0.0100
7      N7     -3.7422   -1.5964    0.3064 N.2      1 ZINC000103281736   -0.1400
8      N8     -4.6677   -2.1773   -0.3257 N.pl3    1 ZINC000103281736   -0.2700
9      C9     -5.7555   -1.4552   -0.8211 C.ar     1 ZINC000103281736    0.1800
10     C10    -7.0510   -1.9103   -0.6041 C.ar     1 ZINC000103281736   -0.0800
11     C11    -8.1240   -1.1938   -1.0954 C.ar     1 ZINC000103281736   -0.0300
12     C12    -7.9111   -0.0243   -1.8029 C.ar     1 ZINC000103281736    0.0100
13     N13    -9.0641    0.7410   -2.3280 N.pl3    1 ZINC000103281736   -0.0200
14     O14   -10.2907    0.3083   -2.1214 O.2      1 ZINC000103281736   -0.1600
15     O15    -8.8633    1.8546   -3.0018 O.2      1 ZINC000103281736   -0.1600
16     C16    -6.6235    0.4320   -2.0204 C.ar     1 ZINC000103281736   -0.0400
17     C17    -5.5458   -0.2764   -1.5276 C.ar     1 ZINC000103281736   -0.0900
18     C18    -4.5824   -3.5202   -0.5140 C.2      1 ZINC000103281736    0.2500
19     N19    -5.4483   -4.3147   -1.1505 N.2      1 ZINC000103281736   -0.4000
20     C20    -5.2100   -5.6132   -1.2433 C.2      1 ZINC000103281736    0.2000
21     N21    -5.9981   -6.4778   -1.8537 N.2      1 ZINC000103281736   -0.4400
22     C22    -5.6130   -7.7214   -1.8517 C.2      1 ZINC000103281736    0.2100
23     C23    -6.3740   -8.8027   -2.4854 C.2      1 ZINC000103281736   -0.2800
24     C24    -7.5780   -8.6846   -3.1686 C.2      1 ZINC000103281736    0.2400
25     C25    -8.3427   -7.4054   -3.3922 C.3      1 ZINC000103281736   -0.1200
26     N26    -7.9446   -9.9049   -3.5970 N.pl3    1 ZINC000103281736   -0.3700
27     C27    -9.1611  -10.1965   -4.3595 C.3      1 ZINC000103281736    0.0900
28     N28    -6.9957  -10.8548   -3.2089 N.am     1 ZINC000103281736   -0.3700
29     C29    -7.0547  -12.2245   -3.4836 C.ar     1 ZINC000103281736    0.1400
30     C30    -7.3252  -12.6648   -4.7730 C.ar     1 ZINC000103281736   -0.1300
31     C31    -7.3828  -14.0183   -5.0409 C.ar     1 ZINC000103281736   -0.1000
32     C32    -7.1720  -14.9350   -4.0272 C.ar     1 ZINC000103281736   -0.1200
33     C33    -6.9025  -14.5001   -2.7425 C.ar     1 ZINC000103281736   -0.1000
34     C34    -6.8374  -13.1479   -2.4690 C.ar     1 ZINC000103281736   -0.1000
35     C35    -6.0107  -10.2310   -2.5301 C.2      1 ZINC000103281736    0.5600
36     O36    -5.0216  -10.7465   -2.0441 O.2      1 ZINC000103281736   -0.5200
37     C37    -4.3473   -7.9310   -1.1555 C.2      1 ZINC000103281736   -0.2700
38     S38    -3.7971   -6.4188   -0.5767 S.3      1 ZINC000103281736    0.1300
39     S39    -3.0992   -3.9672    0.2478 S.3      1 ZINC000103281736    0.1700
40     H40     0.5889    1.6830    3.3741 H        1 ZINC000103281736    0.0900
41     H41    -0.3203    1.9115    1.8610 H        1 ZINC000103281736    0.0700
42     H42    -1.1903    1.6341    3.3889 H        1 ZINC000103281736    0.0700
43     H43     0.6339   -0.3736    1.9896 H        1 ZINC000103281736    0.0800
44     H44    -0.2361   -0.6509    3.5175 H        1 ZINC000103281736    0.0800
45     H45    -7.2180   -2.8235   -0.0521 H        1 ZINC000103281736    0.1600
46     H46    -9.1307   -1.5469   -0.9275 H        1 ZINC000103281736    0.1700
47     H47    -6.4613    1.3456   -2.5729 H        1 ZINC000103281736    0.1700
48     H48    -4.5408    0.0804   -1.6979 H        1 ZINC000103281736    0.1600
49     H49    -7.8053   -6.5758   -2.9327 H        1 ZINC000103281736    0.1300
50     H50    -8.4434   -7.2247   -4.4624 H        1 ZINC000103281736    0.0900
51     H51    -9.3323   -7.4905   -2.9433 H        1 ZINC000103281736    0.0900
52     H52    -9.7626   -9.2914   -4.4441 H        1 ZINC000103281736    0.1100
53     H53    -8.8904  -10.5472   -5.3553 H        1 ZINC000103281736    0.0800
54     H54    -9.7355  -10.9677   -3.8462 H        1 ZINC000103281736    0.0800
55     H55    -7.4906  -11.9494   -5.5649 H        1 ZINC000103281736    0.1300
56     H56    -7.5930  -14.3613   -6.0432 H        1 ZINC000103281736    0.1300
57     H57    -7.2183  -15.9930   -4.2393 H        1 ZINC000103281736    0.1300
58     H58    -6.7384  -15.2186   -1.9531 H        1 ZINC000103281736    0.1300
59     H59    -6.6265  -12.8089   -1.4656 H        1 ZINC000103281736    0.1300
60     H60    -3.8426   -8.8777   -1.0314 H        1 ZINC000103281736    0.1900
@<TRIPOS>BOND
1     1     2     1
2     1     40    1
3     1     41    1
4     1     42    1
5     2     3     1
6     2     43    1
7     2     44    1
8     3     4     1
9     4     5     2
10    4     6     1
11    6     39    1
12    6     7     2
13    7     8     1
14    8     9     1
15    8     18    1
16    9     17    ar
17    9     10    ar
18    10    11    ar
19    10    45    1
20    11    12    ar
21    11    46    1
22    12    13    1
23    12    16    ar
24    13    14    2
25    13    15    2
26    16    17    ar
27    16    47    1
28    17    48    1
29    18    19    2
30    18    39    1
31    19    20    1
32    20    38    1
33    20    21    2
34    21    22    1
35    22    23    1
36    22    37    2
37    23    35    1
38    23    24    2
39    24    25    1
40    24    26    1
41    25    49    1
42    25    50    1
43    25    51    1
44    26    27    1
45    26    28    1
46    27    52    1
47    27    53    1
48    27    54    1
49    28    29    1
50    28    35    am
51    29    34    ar
52    29    30    ar
53    30    31    ar
54    30    55    1
55    31    32    ar
56    31    56    1
57    32    33    ar
58    32    57    1
59    33    34    ar
60    33    58    1
61    34    59    1
62    35    36    2
63    37    38    1
64    37    60    1
@<TRIPOS>SUBSTRUCTURE
1   ZINC000103281736 1     RESIDUE    1   A     ZIN   1
