@<TRIPOS>MOLECULE
ZINC000052509437
58    60    1     0     0
SMALL
USER_CHARGES
@<TRIPOS>ATOM
1      C1     -0.3671   -0.1613    5.1343 C.3      1 ZINC000052509437   -0.1500
2      C2     -0.3720   -1.5790    4.5588 C.3      1 ZINC000052509437   -0.0800
3      C3     -0.0874   -2.5841    5.6767 C.3      1 ZINC000052509437   -0.1600
4      C4     -1.7411   -1.8748    3.9433 C.3      1 ZINC000052509437   -0.1300
5      C5     -1.7081   -3.2221    3.2690 C.2      1 ZINC000052509437    0.5000
6      O6     -0.6898   -3.8810    3.2798 O.2      1 ZINC000052509437   -0.4800
7      N7     -2.8102   -3.6950    2.6540 N.am     1 ZINC000052509437   -0.6500
8      C8     -2.7796   -4.9481    2.0270 C.2      1 ZINC000052509437    0.3400
9      N9     -1.7490   -5.7573    1.9721 N.2      1 ZINC000052509437   -0.2500
10     N10    -2.1288   -6.9006    1.2588 N.pl3    1 ZINC000052509437   -0.4400
11     C11    -3.4205   -6.7520    0.8870 C.2      1 ZINC000052509437    0.0900
12     C12    -3.8508   -5.5606    1.3515 C.2      1 ZINC000052509437   -0.3000
13     C13    -5.2917   -5.3605    0.9545 C.3      1 ZINC000052509437    0.1900
14     N14    -5.7096   -6.5466    0.1984 N.am     1 ZINC000052509437   -0.6000
15     C15    -6.9236   -6.7751   -0.3407 C.2      1 ZINC000052509437    0.5500
16     O16    -7.1090   -7.7617   -1.0212 O.2      1 ZINC000052509437   -0.5200
17     C17    -8.0506   -5.8046   -0.0978 C.3      1 ZINC000052509437   -0.1200
18     C18    -8.1181   -4.7992   -1.2510 C.3      1 ZINC000052509437   -0.1400
19     C19    -9.3127   -3.8669   -1.0383 C.3      1 ZINC000052509437    0.0000
20     N20   -10.5513   -4.6536   -1.0000 N.4      1 ZINC000052509437   -0.3900
21     H21   -10.6369   -5.1860   -1.8529 H        1 ZINC000052509437    0.4300
22     C22   -11.7010   -3.7483   -0.8721 C.3      1 ZINC000052509437   -0.0500
23     C23   -10.5240   -5.5700    0.1463 C.3      1 ZINC000052509437    0.0000
24     C24    -9.3760   -6.5679   -0.0208 C.3      1 ZINC000052509437   -0.1300
25     C25    -4.5435   -7.4362    0.1494 C.3      1 ZINC000052509437    0.2400
26     C26    -4.1331   -7.6751   -1.3050 C.3      1 ZINC000052509437   -0.1600
27     C27    -4.8782   -8.7688    0.8225 C.3      1 ZINC000052509437   -0.1600
28     H28     0.6083    0.0494    5.5729 H        1 ZINC000052509437    0.0600
29     H29    -0.5698    0.5548    4.3379 H        1 ZINC000052509437    0.0600
30     H30    -1.1363   -0.0782    5.9021 H        1 ZINC000052509437    0.0600
31     H31     0.3973   -1.6621    3.7910 H        1 ZINC000052509437    0.0800
32     H32    -0.0909   -3.5941    5.2667 H        1 ZINC000052509437    0.0700
33     H33     0.8879   -2.3734    6.1152 H        1 ZINC000052509437    0.0600
34     H34    -0.8566   -2.5010    6.4445 H        1 ZINC000052509437    0.0500
35     H35    -2.4986   -1.8791    4.7270 H        1 ZINC000052509437    0.1000
36     H36    -1.9828   -1.1067    3.2086 H        1 ZINC000052509437    0.1000
37     H37    -3.6246   -3.1682    2.6454 H        1 ZINC000052509437    0.4200
38     H38    -1.5642   -7.6650    1.0647 H        1 ZINC000052509437    0.4500
39     H39    -5.9097   -5.2532    1.8460 H        1 ZINC000052509437    0.0800
40     H40    -5.3834   -4.4721    0.3297 H        1 ZINC000052509437    0.0800
41     H41    -7.8800   -5.2750    0.8395 H        1 ZINC000052509437    0.1100
42     H42    -7.1994   -4.2133   -1.2773 H        1 ZINC000052509437    0.1200
43     H43    -8.2369   -5.3338   -2.1934 H        1 ZINC000052509437    0.1000
44     H44    -9.1929   -3.3327   -0.0958 H        1 ZINC000052509437    0.1300
45     H45    -9.3636   -3.1496   -1.8575 H        1 ZINC000052509437    0.1400
46     H46   -11.7266   -3.0707   -1.7255 H        1 ZINC000052509437    0.1200
47     H47   -12.6214   -4.3315   -0.8435 H        1 ZINC000052509437    0.1300
48     H48   -11.6082   -3.1708    0.0477 H        1 ZINC000052509437    0.1200
49     H49   -10.3783   -4.9995    1.0636 H        1 ZINC000052509437    0.1300
50     H50   -11.4691   -6.1102    0.2017 H        1 ZINC000052509437    0.1400
51     H51    -9.5209   -7.1391   -0.9377 H        1 ZINC000052509437    0.1000
52     H52    -9.3563   -7.2462    0.8322 H        1 ZINC000052509437    0.1200
53     H53    -3.8796   -6.7234   -1.7720 H        1 ZINC000052509437    0.0600
54     H54    -3.2670   -8.3362   -1.3342 H        1 ZINC000052509437    0.0700
55     H55    -4.9603   -8.1359   -1.8450 H        1 ZINC000052509437    0.0800
56     H56    -5.7121   -9.2395    0.3018 H        1 ZINC000052509437    0.0800
57     H57    -4.0084   -9.4245    0.7827 H        1 ZINC000052509437    0.0700
58     H58    -5.1525   -8.5919    1.8624 H        1 ZINC000052509437    0.0600
@<TRIPOS>BOND
1     1     2     1
2     1     28    1
3     1     29    1
4     1     30    1
5     2     3     1
6     2     4     1
7     2     31    1
8     3     32    1
9     3     33    1
10    3     34    1
11    4     5     1
12    4     35    1
13    4     36    1
14    5     6     2
15    5     7     am
16    7     8     1
17    7     37    1
18    8     12    1
19    8     9     2
20    9     10    1
21    10    11    1
22    10    38    1
23    11    25    1
24    11    12    2
25    12    13    1
26    13    14    1
27    13    39    1
28    13    40    1
29    14    15    am
30    14    25    1
31    15    16    2
32    15    17    1
33    17    24    1
34    17    18    1
35    17    41    1
36    18    19    1
37    18    42    1
38    18    43    1
39    19    20    1
40    19    44    1
41    19    45    1
42    20    21    1
43    20    22    1
44    20    23    1
45    22    46    1
46    22    47    1
47    22    48    1
48    23    24    1
49    23    49    1
50    23    50    1
51    24    51    1
52    24    52    1
53    25    26    1
54    25    27    1
55    26    53    1
56    26    54    1
57    26    55    1
58    27    56    1
59    27    57    1
60    27    58    1
@<TRIPOS>SUBSTRUCTURE
1   ZINC000052509437 1     RESIDUE    1   A     ZIN   1
