@<TRIPOS>MOLECULE
ZINC000169341684
72    77    1     0     0
SMALL
USER_CHARGES
@<TRIPOS>ATOM
1      C1      1.0952    0.7483    0.8756 C.3      1 ZINC000169341684   -0.1600
2      C2      0.9419   -0.7636    0.6982 C.3      1 ZINC000169341684    0.0500
3      O3      1.5185   -1.1579   -0.5484 O.3      1 ZINC000169341684   -0.3000
4      C4      1.4660   -2.4791   -0.8621 C.ar     1 ZINC000169341684    0.2100
5      C5      0.8667   -3.3762    0.0097 C.ar     1 ZINC000169341684   -0.2600
6      C6      0.8140   -4.7213   -0.3110 C.ar     1 ZINC000169341684    0.2000
7      F7      0.2300   -5.5953    0.5377 F        1 ZINC000169341684   -0.1200
8      C8      1.3591   -5.1718   -1.5013 C.ar     1 ZINC000169341684   -0.2300
9      C9      1.3010   -6.6369   -1.8491 C.3      1 ZINC000169341684    0.1800
10     N10     0.0691   -6.9139   -2.5921 N.pl3    1 ZINC000169341684   -0.3400
11     N11    -1.1632   -7.2731   -2.0339 N.2      1 ZINC000169341684   -0.2400
12     C12    -2.0242   -7.4375   -3.0152 C.2      1 ZINC000169341684    0.1300
13     C13    -3.4493   -7.8209   -2.8700 C.ar     1 ZINC000169341684    0.4000
14     N14    -4.1955   -7.9536   -3.9570 N.ar     1 ZINC000169341684   -0.4600
15     C15    -5.4724   -8.2945   -3.8697 C.ar     1 ZINC000169341684    0.1000
16     C16    -6.0303   -8.5143   -2.6201 C.ar     1 ZINC000169341684    0.0100
17     O17    -7.3379   -8.8661   -2.4934 O.3      1 ZINC000169341684   -0.2700
18     C18    -8.0947   -8.9952   -3.6987 C.3      1 ZINC000169341684    0.0800
19     C19    -9.5321   -9.3936   -3.3582 C.3      1 ZINC000169341684   -0.1300
20     C20    -9.6113  -10.5591   -2.3701 C.3      1 ZINC000169341684    0.0900
21     O21    -8.7756  -10.2860   -1.2435 O.3      1 ZINC000169341684   -0.5600
22     C22   -10.4379   -8.2024   -2.9931 C.3      1 ZINC000169341684    0.0500
23     O23   -10.7706   -8.1712   -4.3956 O.3      1 ZINC000169341684   -0.3700
24     C24   -10.4399   -9.5608   -4.5913 C.3      1 ZINC000169341684    0.0600
25     C25    -5.2145   -8.3658   -1.4902 C.ar     1 ZINC000169341684    0.3800
26     N26    -5.7285   -8.5754   -0.2169 N.pl3    1 ZINC000169341684   -0.6200
27     C27    -4.9439   -8.3105    0.9032 C.ar     1 ZINC000169341684    0.3000
28     C28    -5.1018   -9.0461    2.0775 C.ar     1 ZINC000169341684   -0.1800
29     C29    -4.3052   -8.7525    3.1643 C.ar     1 ZINC000169341684    0.1600
30     N30    -3.4039   -7.7901    3.1024 N.ar     1 ZINC000169341684   -0.4700
31     H31    -2.8578   -7.6054    3.8825 H        1 ZINC000169341684    0.4500
32     C32    -3.2240   -7.0721    2.0096 C.ar     1 ZINC000169341684    0.1500
33     C33    -3.9760   -7.3067    0.8777 C.ar     1 ZINC000169341684   -0.1400
34     N34    -3.9421   -8.0271   -1.6558 N.ar     1 ZINC000169341684   -0.5100
35     C35    -1.3521   -7.1842   -4.2307 C.2      1 ZINC000169341684   -0.2000
36     C36    -0.0759   -6.8612   -3.9372 C.2      1 ZINC000169341684    0.0600
37     C37     0.6992   -6.5771   -5.2060 C.3      1 ZINC000169341684   -0.0500
38     C38    -0.1539   -7.1863   -6.3400 C.3      1 ZINC000169341684   -0.1200
39     C39    -1.5724   -7.1480   -5.7277 C.3      1 ZINC000169341684   -0.0400
40     C40     1.9572   -4.2773   -2.3726 C.ar     1 ZINC000169341684    0.2000
41     F41     2.4878   -4.7183   -3.5342 F        1 ZINC000169341684   -0.1200
42     C42     2.0066   -2.9309   -2.0569 C.ar     1 ZINC000169341684   -0.2000
43     H43     2.1533    1.0098    0.8658 H        1 ZINC000169341684    0.0700
44     H44     0.5861    1.2632    0.0609 H        1 ZINC000169341684    0.0700
45     H45     0.6554    1.0490    1.8266 H        1 ZINC000169341684    0.0800
46     H46     1.4510   -1.2785    1.5130 H        1 ZINC000169341684    0.0700
47     H47    -0.1162   -1.0252    0.7081 H        1 ZINC000169341684    0.0700
48     H48     0.4418   -3.0252    0.9384 H        1 ZINC000169341684    0.1500
49     H49     2.1625   -6.8990   -2.4633 H        1 ZINC000169341684    0.1100
50     H50     1.3139   -7.2285   -0.9337 H        1 ZINC000169341684    0.1100
51     H51    -6.0719   -8.3997   -4.7618 H        1 ZINC000169341684    0.1800
52     H52    -8.0976   -8.0432   -4.2296 H        1 ZINC000169341684    0.0800
53     H53    -7.6450   -9.7617   -4.3298 H        1 ZINC000169341684    0.0800
54     H54   -10.6415  -10.6833   -2.0366 H        1 ZINC000169341684    0.0600
55     H55    -9.2749  -11.4734   -2.8589 H        1 ZINC000169341684    0.0500
56     H56    -8.7767  -10.9843   -0.5746 H        1 ZINC000169341684    0.3800
57     H57   -11.2750   -8.4667   -2.3470 H        1 ZINC000169341684    0.0900
58     H58    -9.8930   -7.3232   -2.6494 H        1 ZINC000169341684    0.0900
59     H59    -9.8967   -9.7590   -5.5153 H        1 ZINC000169341684    0.1000
60     H60   -11.2777  -10.2400   -4.4333 H        1 ZINC000169341684    0.1000
61     H61    -6.6337   -8.9063   -0.1078 H        1 ZINC000169341684    0.4500
62     H62    -5.8378   -9.8344    2.1352 H        1 ZINC000169341684    0.1800
63     H63    -4.4205   -9.3169    4.0778 H        1 ZINC000169341684    0.2100
64     H64    -2.4755   -6.2935    2.0005 H        1 ZINC000169341684    0.2100
65     H65    -3.8237   -6.7155   -0.0132 H        1 ZINC000169341684    0.1900
66     H66     0.8092   -5.5023   -5.3502 H        1 ZINC000169341684    0.0900
67     H67     1.6771   -7.0571   -5.1679 H        1 ZINC000169341684    0.0800
68     H68    -0.1028   -6.5719   -7.2389 H        1 ZINC000169341684    0.0900
69     H69     0.1539   -8.2103   -6.5519 H        1 ZINC000169341684    0.0800
70     H70    -2.1456   -8.0193   -6.0446 H        1 ZINC000169341684    0.0800
71     H71    -2.0852   -6.2306   -6.0168 H        1 ZINC000169341684    0.0800
72     H72     2.4728   -2.2333   -2.7369 H        1 ZINC000169341684    0.1600
@<TRIPOS>BOND
1     1     2     1
2     1     43    1
3     1     44    1
4     1     45    1
5     2     3     1
6     2     46    1
7     2     47    1
8     3     4     1
9     4     42    ar
10    4     5     ar
11    5     6     ar
12    5     48    1
13    6     7     1
14    6     8     ar
15    8     9     1
16    8     40    ar
17    9     10    1
18    9     49    1
19    9     50    1
20    10    36    1
21    10    11    1
22    11    12    2
23    12    13    1
24    12    35    1
25    13    34    ar
26    13    14    ar
27    14    15    ar
28    15    16    ar
29    15    51    1
30    16    17    1
31    16    25    ar
32    17    18    1
33    18    19    1
34    18    52    1
35    18    53    1
36    19    24    1
37    19    20    1
38    19    22    1
39    20    21    1
40    20    54    1
41    20    55    1
42    21    56    1
43    22    23    1
44    22    57    1
45    22    58    1
46    23    24    1
47    24    59    1
48    24    60    1
49    25    26    1
50    25    34    ar
51    26    27    1
52    26    61    1
53    27    33    ar
54    27    28    ar
55    28    29    ar
56    28    62    1
57    29    30    ar
58    29    63    1
59    30    31    1
60    30    32    ar
61    32    33    ar
62    32    64    1
63    33    65    1
64    35    39    1
65    35    36    2
66    36    37    1
67    37    38    1
68    37    66    1
69    37    67    1
70    38    39    1
71    38    68    1
72    38    69    1
73    39    70    1
74    39    71    1
75    40    41    1
76    40    42    ar
77    42    72    1
@<TRIPOS>SUBSTRUCTURE
1   ZINC000169341684 1     RESIDUE    1   A     ZIN   1
