@<TRIPOS>MOLECULE
ZINC000000001219
27    30    1     0     0
SMALL
USER_CHARGES
@<TRIPOS>ATOM
1      O1      0.0021   -0.0041    0.0020 O.2      1 ZINC000000001219   -0.4900
2      C2     -0.0144    1.2134    0.0087 C.2      1 ZINC000000001219    0.5600
3      O3     -1.1941    1.8558    0.0290 O.3      1 ZINC000000001219   -0.2700
4      C4     -1.2752    3.2043    0.0373 C.ar     1 ZINC000000001219    0.2100
5      C5     -2.5120    3.8321    0.0583 C.ar     1 ZINC000000001219   -0.2800
6      C6     -2.5836    5.2156    0.0662 C.ar     1 ZINC000000001219    0.3200
7      O7     -3.7958    5.8272    0.0867 O.3      1 ZINC000000001219   -0.6800
8      C8     -1.4227    5.9838    0.0537 C.ar     1 ZINC000000001219   -0.2500
9      C9     -0.1969    5.3813    0.0326 C.ar     1 ZINC000000001219   -0.0100
10     C10    -0.1072    3.9871    0.0243 C.ar     1 ZINC000000001219   -0.2600
11     C11     1.1980    3.3142    0.0012 C.2      1 ZINC000000001219    0.2300
12     C12     1.2063    1.9219    0.0009 C.2      1 ZINC000000001219   -0.3500
13     C13     2.6257    1.5319   -0.0244 C.ar     1 ZINC000000001219   -0.0500
14     C14     3.2961    0.3121   -0.0368 C.ar     1 ZINC000000001219   -0.0600
15     C15     4.6737    0.2882   -0.0617 C.ar     1 ZINC000000001219   -0.1500
16     C16     5.3924    1.4788   -0.0738 C.ar     1 ZINC000000001219    0.1100
17     O17     6.7510    1.4463   -0.0978 O.3      1 ZINC000000001219   -0.4900
18     C18     4.7347    2.6963   -0.0620 C.ar     1 ZINC000000001219   -0.1200
19     C19     3.3470    2.7364   -0.0370 C.ar     1 ZINC000000001219    0.0500
20     O20     2.4636    3.7586   -0.0155 O.3      1 ZINC000000001219   -0.1800
21     H21    -3.4174    3.2434    0.0680 H        1 ZINC000000001219    0.1300
22     H22    -1.4916    7.0616    0.0605 H        1 ZINC000000001219    0.1200
23     H23     0.7010    5.9815    0.0230 H        1 ZINC000000001219    0.1200
24     H24     2.7384   -0.6126   -0.0267 H        1 ZINC000000001219    0.1400
25     H25     5.1962   -0.6569   -0.0714 H        1 ZINC000000001219    0.1400
26     H26     7.1285    1.4373   -0.9881 H        1 ZINC000000001219    0.3900
27     H27     5.3012    3.6158   -0.0719 H        1 ZINC000000001219    0.1400
@<TRIPOS>BOND
1     1     2     2
2     2     12    1
3     2     3     1
4     3     4     1
5     4     10    ar
6     4     5     ar
7     5     6     ar
8     5     21    1
9     6     7     1
10    6     8     ar
11    8     9     ar
12    8     22    1
13    9     10    ar
14    9     23    1
15    10    11    1
16    11    20    1
17    11    12    2
18    12    13    1
19    13    19    ar
20    13    14    ar
21    14    15    ar
22    14    24    1
23    15    16    ar
24    15    25    1
25    16    17    1
26    16    18    ar
27    17    26    1
28    18    19    ar
29    18    27    1
30    19    20    1
@<TRIPOS>SUBSTRUCTURE
1   ZINC000000001219 1     RESIDUE    1   A     ZIN   1
