@<TRIPOS>MOLECULE
ZINC000040394943
51    55    1     0     0
SMALL
USER_CHARGES
@<TRIPOS>ATOM
1      C1     -0.0173    1.4248    0.0099 C.3      1 ZINC000040394943    0.0200
2      O2      0.0021   -0.0041    0.0020 O.3      1 ZINC000040394943   -0.3100
3      C3      0.6060   -0.6074   -1.0561 C.ar     1 ZINC000040394943    0.1400
4      C4      1.1727    0.1618   -2.0621 C.ar     1 ZINC000040394943   -0.1900
5      C5      1.7859   -0.4504   -3.1372 C.ar     1 ZINC000040394943   -0.0700
6      C6      1.8356   -1.8359   -3.2112 C.ar     1 ZINC000040394943    0.0800
7      N7      2.4587   -2.4583   -4.3029 N.pl3    1 ZINC000040394943   -0.4400
8      C8      2.2431   -2.1852   -5.6201 C.2      1 ZINC000040394943    0.2800
9      N9      2.9894   -2.9498   -6.3634 N.2      1 ZINC000040394943   -0.4900
10     C10     3.7355   -3.7666   -5.5770 C.ar     1 ZINC000040394943    0.0800
11     C11     4.6822   -4.7601   -5.8491 C.ar     1 ZINC000040394943   -0.0600
12     C12     5.2822   -5.4309   -4.8254 C.ar     1 ZINC000040394943   -0.0900
13     C13     4.9595   -5.1346   -3.4948 C.ar     1 ZINC000040394943   -0.0100
14     C14     5.6177   -5.8690   -2.3957 C.2      1 ZINC000040394943    0.2200
15     N15     5.4074   -5.6984   -1.1129 N.2      1 ZINC000040394943   -0.2700
16     N16     6.1530   -6.5075   -0.4460 N.2      1 ZINC000040394943   -0.2800
17     C17     6.8697   -7.2274   -1.2775 C.2      1 ZINC000040394943    0.1300
18     S18     8.0375   -8.4721   -0.8395 S.3      1 ZINC000040394943    0.0800
19     C19     7.9063   -8.4052    0.9645 C.3      1 ZINC000040394943   -0.0800
20     C20     8.8442   -9.4150    1.5741 C.ar     1 ZINC000040394943   -0.0900
21     C21     8.4091  -10.7043    1.8160 C.ar     1 ZINC000040394943   -0.0600
22     C22     9.2696  -11.6308    2.3753 C.ar     1 ZINC000040394943   -0.1200
23     C23    10.5650  -11.2677    2.6921 C.ar     1 ZINC000040394943   -0.0600
24     C24    11.0005   -9.9781    2.4493 C.ar     1 ZINC000040394943   -0.1800
25     C25    12.4128   -9.5821    2.7952 C.3      1 ZINC000040394943    0.5100
26     F26    13.0838  -10.6800    3.3445 F        1 ZINC000040394943   -0.1800
27     F27    13.0761   -9.1618    1.6373 F        1 ZINC000040394943   -0.1700
28     F28    12.3897   -8.5369    3.7248 F        1 ZINC000040394943   -0.1700
29     C29    10.1416   -9.0532    1.8862 C.ar     1 ZINC000040394943   -0.0500
30     O30     6.5437   -6.8447   -2.5271 O.3      1 ZINC000040394943   -0.2000
31     C31     4.0187   -4.1479   -3.2065 C.ar     1 ZINC000040394943   -0.0400
32     C32     3.4109   -3.4596   -4.2428 C.ar     1 ZINC000040394943    0.0400
33     C33     1.2687   -2.6051   -2.2040 C.ar     1 ZINC000040394943   -0.0700
34     C34     0.6604   -1.9918   -1.1267 C.ar     1 ZINC000040394943   -0.1300
35     H35     1.0053    1.8021    0.0021 H        1 ZINC000040394943    0.0600
36     H36    -0.5445    1.7859   -0.8732 H        1 ZINC000040394943    0.0600
37     H37    -0.5275    1.7763    0.9067 H        1 ZINC000040394943    0.1100
38     H38     1.1340    1.2395   -2.0044 H        1 ZINC000040394943    0.1400
39     H39     2.2264    0.1484   -3.9206 H        1 ZINC000040394943    0.1400
40     H40     1.5533   -1.4426   -5.9931 H        1 ZINC000040394943    0.2200
41     H41     4.9376   -4.9961   -6.8716 H        1 ZINC000040394943    0.1400
42     H42     6.0120   -6.1970   -5.0419 H        1 ZINC000040394943    0.1400
43     H43     8.1722   -7.4066    1.3113 H        1 ZINC000040394943    0.1200
44     H44     6.8831   -8.6331    1.2631 H        1 ZINC000040394943    0.1200
45     H45     7.3969  -10.9881    1.5685 H        1 ZINC000040394943    0.1400
46     H46     8.9294  -12.6381    2.5650 H        1 ZINC000040394943    0.1400
47     H47    11.2370  -11.9911    3.1297 H        1 ZINC000040394943    0.1400
48     H48    10.4818   -8.0459    1.6965 H        1 ZINC000040394943    0.1400
49     H49     3.7684   -3.9185   -2.1813 H        1 ZINC000040394943    0.1400
50     H50     1.3067   -3.6829   -2.2613 H        1 ZINC000040394943    0.1400
51     H51     0.2197   -2.5901   -0.3430 H        1 ZINC000040394943    0.1400
@<TRIPOS>BOND
1     1     2     1
2     1     35    1
3     1     36    1
4     1     37    1
5     2     3     1
6     3     34    ar
7     3     4     ar
8     4     5     ar
9     4     38    1
10    5     6     ar
11    5     39    1
12    6     7     1
13    6     33    ar
14    7     32    1
15    7     8     1
16    8     9     2
17    8     40    1
18    9     10    1
19    10    32    ar
20    10    11    ar
21    11    12    ar
22    11    41    1
23    12    13    ar
24    12    42    1
25    13    14    1
26    13    31    ar
27    14    30    1
28    14    15    2
29    15    16    1
30    16    17    2
31    17    18    1
32    17    30    1
33    18    19    1
34    19    20    1
35    19    43    1
36    19    44    1
37    20    29    ar
38    20    21    ar
39    21    22    ar
40    21    45    1
41    22    23    ar
42    22    46    1
43    23    24    ar
44    23    47    1
45    24    25    1
46    24    29    ar
47    25    26    1
48    25    27    1
49    25    28    1
50    29    48    1
51    31    32    ar
52    31    49    1
53    33    34    ar
54    33    50    1
55    34    51    1
@<TRIPOS>SUBSTRUCTURE
1   ZINC000040394943 1     RESIDUE    1   A     ZIN   1
