@<TRIPOS>MOLECULE
ZINC000017051546
48    51    1     0     0
SMALL
USER_CHARGES
@<TRIPOS>ATOM
1      C1      0.0257    1.5021    0.0074 C.3      1 ZINC000017051546   -0.1200
2      C2      0.0460   -0.0047   -0.0005 C.ar     1 ZINC000017051546   -0.0700
3      C3      0.0593   -0.6874   -1.2034 C.ar     1 ZINC000017051546   -0.1200
4      C4      0.0774   -2.0674   -1.2165 C.ar     1 ZINC000017051546   -0.0800
5      C5      0.0828   -2.7729   -0.0151 C.ar     1 ZINC000017051546   -0.0300
6      C6      0.1028   -4.2570   -0.0229 C.2      1 ZINC000017051546    0.1500
7      N7      0.1225   -5.0229   -1.1022 N.2      1 ZINC000017051546   -0.2800
8      N8      0.1375   -6.3621   -0.7022 N.pl3    1 ZINC000017051546   -0.2500
9      C9      0.1597   -7.5491   -1.3888 C.2      1 ZINC000017051546    0.0600
10     C10     0.1699   -8.7162   -0.7154 C.2      1 ZINC000017051546    0.0300
11     N11     0.1590   -8.7517    0.6211 N.2      1 ZINC000017051546   -0.4700
12     C12     0.1377   -7.6405    1.3333 C.2      1 ZINC000017051546    0.1400
13     S13     0.1242   -7.7136    3.0937 S.3      1 ZINC000017051546    0.0800
14     C14     0.1472   -9.5075    3.3340 C.3      1 ZINC000017051546   -0.1600
15     C15     0.1393   -9.8169    4.8088 C.2      1 ZINC000017051546    0.5400
16     O16     0.1201   -8.9135    5.6179 O.2      1 ZINC000017051546   -0.4900
17     N17     0.1537  -11.0975    5.2288 N.am     1 ZINC000017051546   -0.6600
18     C18     0.2632  -11.3851    6.5943 C.ar     1 ZINC000017051546    0.1600
19     C19     0.8560  -10.4693    7.4527 C.ar     1 ZINC000017051546   -0.0700
20     C20     0.9622  -10.7557    8.8001 C.ar     1 ZINC000017051546   -0.1600
21     C21     1.6052   -9.7614    9.7323 C.3      1 ZINC000017051546    0.5100
22     F22     0.6294   -8.8927   10.2327 F        1 ZINC000017051546   -0.1700
23     F23     2.2121  -10.4419   10.7934 F        1 ZINC000017051546   -0.1700
24     F24     2.5711   -9.0267    9.0363 F        1 ZINC000017051546   -0.1700
25     C25     0.4790  -11.9530    9.2945 C.ar     1 ZINC000017051546   -0.0700
26     C26    -0.1118  -12.8684    8.4426 C.ar     1 ZINC000017051546   -0.0900
27     C27    -0.2265  -12.5858    7.0948 C.ar     1 ZINC000017051546   -0.0400
28     Cl28   -0.9687  -13.7348    6.0258 Cl       1 ZINC000017051546   -0.0500
29     C29     0.1262   -6.3892    0.6705 C.2      1 ZINC000017051546    0.0600
30     C30     0.1100   -5.0774    1.1075 C.2      1 ZINC000017051546   -0.2300
31     C31     0.0699   -2.0802    1.1937 C.ar     1 ZINC000017051546   -0.0800
32     C32     0.0570   -0.7000    1.1952 C.ar     1 ZINC000017051546   -0.1200
33     H33     1.0484    1.8792    0.0079 H        1 ZINC000017051546    0.0700
34     H34    -0.4942    1.8631   -0.8799 H        1 ZINC000017051546    0.0700
35     H35    -0.4917    1.8538    0.9000 H        1 ZINC000017051546    0.0700
36     H36     0.0550   -0.1395   -2.1341 H        1 ZINC000017051546    0.1300
37     H37     0.0870   -2.5995   -2.1563 H        1 ZINC000017051546    0.1300
38     H38     0.1685   -7.5484   -2.4687 H        1 ZINC000017051546    0.1800
39     H39     0.1870   -9.6440   -1.2678 H        1 ZINC000017051546    0.1900
40     H40    -0.7329   -9.9481    2.8656 H        1 ZINC000017051546    0.1300
41     H41     1.0468   -9.9233    2.8803 H        1 ZINC000017051546    0.1300
42     H42     0.0882  -11.8199    4.5848 H        1 ZINC000017051546    0.4200
43     H43     1.2341   -9.5338    7.0676 H        1 ZINC000017051546    0.1700
44     H44     0.5635  -12.1741   10.3482 H        1 ZINC000017051546    0.1500
45     H45    -0.4880  -13.8030    8.8318 H        1 ZINC000017051546    0.1500
46     H46     0.1027   -4.7472    2.1358 H        1 ZINC000017051546    0.1700
47     H47     0.0737   -2.6222    2.1279 H        1 ZINC000017051546    0.1300
48     H48     0.0470   -0.1621    2.1316 H        1 ZINC000017051546    0.1300
@<TRIPOS>BOND
1     1     2     1
2     1     33    1
3     1     34    1
4     1     35    1
5     2     32    ar
6     2     3     ar
7     3     4     ar
8     3     36    1
9     4     5     ar
10    4     37    1
11    5     6     1
12    5     31    ar
13    6     30    1
14    6     7     2
15    7     8     1
16    8     29    1
17    8     9     1
18    9     10    2
19    9     38    1
20    10    11    1
21    10    39    1
22    11    12    2
23    12    13    1
24    12    29    1
25    13    14    1
26    14    15    1
27    14    40    1
28    14    41    1
29    15    16    2
30    15    17    am
31    17    18    1
32    17    42    1
33    18    27    ar
34    18    19    ar
35    19    20    ar
36    19    43    1
37    20    21    1
38    20    25    ar
39    21    22    1
40    21    23    1
41    21    24    1
42    25    26    ar
43    25    44    1
44    26    27    ar
45    26    45    1
46    27    28    1
47    29    30    2
48    30    46    1
49    31    32    ar
50    31    47    1
51    32    48    1
@<TRIPOS>SUBSTRUCTURE
1   ZINC000017051546 1     RESIDUE    1   A     ZIN   1
