@<TRIPOS>MOLECULE
ZINC000028117357
70    76    1     0     0
SMALL
USER_CHARGES
@<TRIPOS>ATOM
1      C1      1.2641    0.2719   -3.9333 C.3      1 ZINC000028117357   -0.0500
2      N2      1.0336   -0.9770   -3.1950 N.4      1 ZINC000028117357   -0.3900
3      H3      0.8200   -1.7179   -3.8457 H        1 ZINC000028117357    0.4300
4      C4      2.2409   -1.3261   -2.4344 C.3      1 ZINC000028117357   -0.0500
5      C5     -0.0932   -0.7979   -2.2697 C.3      1 ZINC000028117357   -0.0100
6      C6     -1.3758   -0.5574   -3.0686 C.3      1 ZINC000028117357   -0.1800
7      C7     -2.5494   -0.3709   -2.1049 C.3      1 ZINC000028117357    0.1500
8      N8     -3.7775   -0.1406   -2.8698 N.pl3    1 ZINC000028117357   -0.4100
9      N9     -4.2554    1.1096   -3.2749 N.2      1 ZINC000028117357   -0.2200
10     C10    -5.3794    0.9644   -3.9421 C.2      1 ZINC000028117357    0.1700
11     C11    -6.1888    2.0455   -4.5322 C.2      1 ZINC000028117357   -0.0700
12     C12    -6.6746    3.1753   -3.8831 C.2      1 ZINC000028117357    0.0200
13     C13    -6.4849    3.5336   -2.4708 C.2      1 ZINC000028117357   -0.1400
14     C14    -5.3462    4.0267   -1.8983 C.2      1 ZINC000028117357    0.1100
15     N15    -5.5552    4.2370   -0.5711 N.pl3    1 ZINC000028117357   -0.4200
16     C16    -4.5988    4.7381    0.3194 C.ar     1 ZINC000028117357    0.0800
17     C17    -4.9185    5.8029    1.1697 C.ar     1 ZINC000028117357    0.1400
18     N18    -4.0457    6.2939    2.0139 N.ar     1 ZINC000028117357   -0.4400
19     C19    -2.8062    5.8019    2.1048 C.ar     1 ZINC000028117357    0.1200
20     C20    -1.8804    6.3394    3.0164 C.ar     1 ZINC000028117357   -0.0800
21     C21    -0.6247    5.8204    3.0899 C.ar     1 ZINC000028117357   -0.1000
22     C22    -0.2355    4.7600    2.2736 C.ar     1 ZINC000028117357   -0.1000
23     C23    -1.1032    4.2132    1.3784 C.ar     1 ZINC000028117357   -0.1000
24     C24    -2.4082    4.7230    1.2760 C.ar     1 ZINC000028117357   -0.0900
25     C25    -3.3351    4.1804    0.3681 C.ar     1 ZINC000028117357   -0.0600
26     C26    -6.8471    3.8862   -0.2272 C.ar     1 ZINC000028117357    0.1000
27     C27    -7.5504    3.9073    0.9717 C.ar     1 ZINC000028117357   -0.1200
28     C28    -8.8623    3.4848    1.0074 C.ar     1 ZINC000028117357   -0.0900
29     C29    -9.4917    3.0363   -0.1441 C.ar     1 ZINC000028117357   -0.1300
30     C30    -8.8111    3.0078   -1.3425 C.ar     1 ZINC000028117357   -0.0700
31     C31    -7.4878    3.4377   -1.3941 C.ar     1 ZINC000028117357   -0.0700
32     C32    -7.4216    3.9442   -4.9050 C.2      1 ZINC000028117357    0.5500
33     O33    -7.9949    4.9988   -4.7204 O.2      1 ZINC000028117357   -0.4300
34     N34    -7.3583    3.2787   -6.0708 N.am     1 ZINC000028117357   -0.6800
35     C35    -6.6418    2.1506   -5.9323 C.2      1 ZINC000028117357    0.5700
36     O36    -6.4124    1.3452   -6.8129 O.2      1 ZINC000028117357   -0.4400
37     C37    -5.6806   -0.4725   -3.9914 C.ar     1 ZINC000028117357   -0.1500
38     C38    -6.7156   -1.2251   -4.5479 C.ar     1 ZINC000028117357   -0.0300
39     C39    -6.7117   -2.5852   -4.4192 C.ar     1 ZINC000028117357   -0.1500
40     C40    -5.6860   -3.2274   -3.7382 C.ar     1 ZINC000028117357   -0.0600
41     C41    -4.6549   -2.5054   -3.1806 C.ar     1 ZINC000028117357   -0.1500
42     C42    -4.6359   -1.1184   -3.3060 C.ar     1 ZINC000028117357    0.1300
43     H43     2.1003    0.1390   -4.6199 H        1 ZINC000028117357    0.1300
44     H44     0.3683    0.5310   -4.4977 H        1 ZINC000028117357    0.1200
45     H45     1.4949    1.0723   -3.2304 H        1 ZINC000028117357    0.1200
46     H46     2.4717   -0.5257   -1.7314 H        1 ZINC000028117357    0.1200
47     H47     2.0699   -2.2528   -1.8865 H        1 ZINC000028117357    0.1200
48     H48     3.0771   -1.4590   -3.1209 H        1 ZINC000028117357    0.1300
49     H49    -0.2080   -1.6936   -1.6593 H        1 ZINC000028117357    0.1400
50     H50     0.0991    0.0593   -1.6245 H        1 ZINC000028117357    0.1300
51     H51    -1.2610    0.3383   -3.6790 H        1 ZINC000028117357    0.1000
52     H52    -1.5681   -1.4146   -3.7138 H        1 ZINC000028117357    0.0900
53     H53    -2.6642   -1.2666   -1.4945 H        1 ZINC000028117357    0.1000
54     H54    -2.3571    0.4863   -1.4597 H        1 ZINC000028117357    0.1000
55     H55    -4.4207    4.2198   -2.4205 H        1 ZINC000028117357    0.1800
56     H56    -5.9094    6.2305    1.1285 H        1 ZINC000028117357    0.1700
57     H57    -2.1650    7.1618    3.6561 H        1 ZINC000028117357    0.1400
58     H58     0.0822    6.2373    3.7920 H        1 ZINC000028117357    0.1400
59     H59     0.7674    4.3672    2.3520 H        1 ZINC000028117357    0.1300
60     H60    -0.7900    3.3921    0.7506 H        1 ZINC000028117357    0.1300
61     H61    -3.0662    3.3554   -0.2748 H        1 ZINC000028117357    0.1400
62     H62    -7.0695    4.2540    1.8744 H        1 ZINC000028117357    0.1200
63     H63    -9.4049    3.5029    1.9410 H        1 ZINC000028117357    0.1300
64     H64   -10.5196    2.7075   -0.1017 H        1 ZINC000028117357    0.1300
65     H65    -9.3033    2.6578   -2.2379 H        1 ZINC000028117357    0.1200
66     H66    -7.7690    3.5741   -6.8984 H        1 ZINC000028117357    0.4400
67     H67    -7.5176   -0.7337   -5.0787 H        1 ZINC000028117357    0.1300
68     H68    -7.5135   -3.1660   -4.8506 H        1 ZINC000028117357    0.1300
69     H69    -5.6975   -4.3032   -3.6447 H        1 ZINC000028117357    0.1400
70     H70    -3.8616   -3.0129   -2.6520 H        1 ZINC000028117357    0.1200
@<TRIPOS>BOND
1     1     2     1
2     1     43    1
3     1     44    1
4     1     45    1
5     2     3     1
6     2     4     1
7     2     5     1
8     4     46    1
9     4     47    1
10    4     48    1
11    5     6     1
12    5     49    1
13    5     50    1
14    6     7     1
15    6     51    1
16    6     52    1
17    7     8     1
18    7     53    1
19    7     54    1
20    8     42    1
21    8     9     1
22    9     10    2
23    10    11    1
24    10    37    1
25    11    35    1
26    11    12    2
27    12    13    1
28    12    32    1
29    13    31    1
30    13    14    2
31    14    15    1
32    14    55    1
33    15    16    1
34    15    26    1
35    16    25    ar
36    16    17    ar
37    17    18    ar
38    17    56    1
39    18    19    ar
40    19    24    ar
41    19    20    ar
42    20    21    ar
43    20    57    1
44    21    22    ar
45    21    58    1
46    22    23    ar
47    22    59    1
48    23    24    ar
49    23    60    1
50    24    25    ar
51    25    61    1
52    26    31    ar
53    26    27    ar
54    27    28    ar
55    27    62    1
56    28    29    ar
57    28    63    1
58    29    30    ar
59    29    64    1
60    30    31    ar
61    30    65    1
62    32    33    2
63    32    34    am
64    34    35    am
65    34    66    1
66    35    36    2
67    37    42    ar
68    37    38    ar
69    38    39    ar
70    38    67    1
71    39    40    ar
72    39    68    1
73    40    41    ar
74    40    69    1
75    41    42    ar
76    41    70    1
@<TRIPOS>SUBSTRUCTURE
1   ZINC000028117357 1     RESIDUE    1   A     ZIN   1
