@<TRIPOS>MOLECULE
ZINC000072315495
59    62    1     0     0
SMALL
USER_CHARGES
@<TRIPOS>ATOM
1      C1      3.4166    1.3595    0.4439 C.3      1 ZINC000072315495   -0.1100
2      C2      3.3385   -0.1455    0.4383 C.ar     1 ZINC000072315495   -0.0600
3      C3      3.5859   -0.8435   -0.7285 C.ar     1 ZINC000072315495   -0.1500
4      C4      3.5153   -2.2319   -0.7415 C.ar     1 ZINC000072315495    0.1700
5      N5      3.7665   -2.9338   -1.9245 N.pl3    1 ZINC000072315495   -0.6300
6      C6      3.0898   -4.1137   -2.1868 C.ar     1 ZINC000072315495    0.5700
7      N7      2.1368   -4.5109   -1.3566 N.ar     1 ZINC000072315495   -0.5300
8      C8      1.4714   -5.6326   -1.5780 C.ar     1 ZINC000072315495    0.2100
9      C9      1.7819   -6.3939   -2.6937 C.ar     1 ZINC000072315495   -0.2300
10     C10     2.7845   -5.9490   -3.5415 C.ar     1 ZINC000072315495    0.1300
11     C11     3.1560   -6.7442   -4.7666 C.3      1 ZINC000072315495    0.5300
12     F12     2.3785   -6.3217   -5.8502 F        1 ZINC000072315495   -0.1700
13     F13     4.5098   -6.5458   -5.0585 F        1 ZINC000072315495   -0.1600
14     F14     2.9246   -8.1032   -4.5283 F        1 ZINC000072315495   -0.1600
15     N15     3.4073   -4.8155   -3.2651 N.ar     1 ZINC000072315495   -0.5300
16     C16     3.1964   -2.9205    0.4186 C.ar     1 ZINC000072315495   -0.1200
17     C17     2.9472   -2.2159    1.5959 C.ar     1 ZINC000072315495    0.0200
18     C18     2.6063   -2.9432    2.8377 C.2      1 ZINC000072315495   -0.2100
19     C19     2.3376   -2.3859    4.0379 C.2      1 ZINC000072315495    0.0600
20     N20     2.0618   -3.2537    4.9861 N.2      1 ZINC000072315495   -0.4600
21     C21     2.0796   -4.5047    4.6668 C.2      1 ZINC000072315495    0.0300
22     C22     1.7906   -5.6391    5.6159 C.3      1 ZINC000072315495    0.2100
23     O23     1.9010   -6.8823    4.9200 O.3      1 ZINC000072315495   -0.5200
24     C24     2.7964   -5.6087    6.7684 C.3      1 ZINC000072315495   -0.1300
25     C25     2.5030   -6.7603    7.7320 C.3      1 ZINC000072315495   -0.0900
26     C26     1.0855   -6.6114    8.2881 C.3      1 ZINC000072315495   -0.1400
27     H27     1.0012   -5.6631    8.8190 H        1 ZINC000072315495    0.0600
28     C28     0.7964   -7.7457    9.2372 C.2      1 ZINC000072315495    0.5000
29     O29     1.4874   -7.9013   10.2296 O.co2    1 ZINC000072315495   -0.7100
30     O30    -0.1283   -8.5079    9.0126 O.co2    1 ZINC000072315495   -0.6800
31     C31     0.0796   -6.6418    7.1356 C.3      1 ZINC000072315495   -0.0300
32     C32     0.1979   -7.9728    6.3905 C.3      1 ZINC000072315495   -0.1300
33     C33    -1.3379   -6.4928    7.6918 C.3      1 ZINC000072315495   -0.1500
34     C34     0.3731   -5.4901    6.1721 C.3      1 ZINC000072315495   -0.0800
35     S35     2.4708   -4.6912    3.0132 S.3      1 ZINC000072315495    0.1600
36     C36     3.0257   -0.8224    1.5998 C.ar     1 ZINC000072315495   -0.1200
37     H37     4.4337    1.6697    0.6835 H        1 ZINC000072315495    0.0700
38     H38     3.1424    1.7412   -0.5395 H        1 ZINC000072315495    0.0700
39     H39     2.7301    1.7561    1.1920 H        1 ZINC000072315495    0.0700
40     H40     3.8346   -0.3087   -1.6333 H        1 ZINC000072315495    0.1300
41     H41     4.4146   -2.5945   -2.5615 H        1 ZINC000072315495    0.4300
42     H42     0.6958   -5.9514   -0.8974 H        1 ZINC000072315495    0.1900
43     H43     1.2545   -7.3140   -2.8980 H        1 ZINC000072315495    0.1600
44     H44     3.1406   -3.9990    0.4105 H        1 ZINC000072315495    0.1400
45     H45     2.3488   -1.3189    4.2047 H        1 ZINC000072315495    0.1800
46     H46     2.7754   -7.0440    4.5399 H        1 ZINC000072315495    0.3600
47     H47     3.8063   -5.7148    6.3722 H        1 ZINC000072315495    0.0600
48     H48     2.7122   -4.6604    7.2992 H        1 ZINC000072315495    0.0800
49     H49     2.5872   -7.7086    7.2011 H        1 ZINC000072315495    0.0700
50     H50     3.2196   -6.7387    8.5530 H        1 ZINC000072315495    0.0700
51     H51    -0.2488   -8.7659    6.9903 H        1 ZINC000072315495    0.0800
52     H52    -0.3230   -7.9022    5.4356 H        1 ZINC000072315495    0.0300
53     H53     1.2496   -8.1987    6.2148 H        1 ZINC000072315495    0.0600
54     H54    -1.4221   -5.5445    8.2226 H        1 ZINC000072315495    0.0300
55     H55    -2.0545   -6.5145    6.8708 H        1 ZINC000072315495    0.0300
56     H56    -1.5469   -7.3133    8.3783 H        1 ZINC000072315495    0.1000
57     H57     0.2888   -4.5418    6.7029 H        1 ZINC000072315495    0.0800
58     H58    -0.3435   -5.5118    5.3510 H        1 ZINC000072315495    0.0600
59     H59     2.8337   -0.2734    2.5098 H        1 ZINC000072315495    0.1300
@<TRIPOS>BOND
1     1     2     1
2     1     37    1
3     1     38    1
4     1     39    1
5     2     36    ar
6     2     3     ar
7     3     4     ar
8     3     40    1
9     4     5     1
10    4     16    ar
11    5     6     1
12    5     41    1
13    6     15    ar
14    6     7     ar
15    7     8     ar
16    8     9     ar
17    8     42    1
18    9     10    ar
19    9     43    1
20    10    11    1
21    10    15    ar
22    11    12    1
23    11    13    1
24    11    14    1
25    16    17    ar
26    16    44    1
27    17    18    1
28    17    36    ar
29    18    35    1
30    18    19    2
31    19    20    1
32    19    45    1
33    20    21    2
34    21    22    1
35    21    35    1
36    22    34    1
37    22    23    1
38    22    24    1
39    23    46    1
40    24    25    1
41    24    47    1
42    24    48    1
43    25    26    1
44    25    49    1
45    25    50    1
46    26    27    1
47    26    28    1
48    26    31    1
49    28    29    ar
50    28    30    ar
51    31    32    1
52    31    33    1
53    31    34    1
54    32    51    1
55    32    52    1
56    32    53    1
57    33    54    1
58    33    55    1
59    33    56    1
60    34    57    1
61    34    58    1
62    36    59    1
@<TRIPOS>SUBSTRUCTURE
1   ZINC000072315495 1     RESIDUE    1   A     ZIN   1
