@<TRIPOS>MOLECULE
ZINC000040865591
28    29    1     0     0
SMALL
USER_CHARGES
@<TRIPOS>ATOM
1      C1      0.1352    1.5004   -0.3439 C.3      1 ZINC000040865591   -0.1400
2      C2      0.1268   -0.0284   -0.2861 C.3      1 ZINC000040865591   -0.1100
3      S3     -1.5865   -0.6224   -0.2400 S.3      1 ZINC000040865591   -0.1300
4      C4     -1.3975   -2.3731   -0.1765 C.ar     1 ZINC000040865591   -0.1000
5      C5     -0.1223   -2.9342   -0.1673 C.ar     1 ZINC000040865591   -0.1200
6      C6      0.0288   -4.2907   -0.1182 C.ar     1 ZINC000040865591   -0.1200
7      C7     -1.1011   -5.1184   -0.0771 C.ar     1 ZINC000040865591   -0.0200
8      C8     -0.9437   -6.5764   -0.0238 C.2      1 ZINC000040865591   -0.1600
9      C9      0.2014   -7.1181    0.4648 C.2      1 ZINC000040865591    0.0700
10     N10     1.2554   -6.4490    1.1030 N.am     1 ZINC000040865591   -0.7100
11     C11     2.1870   -7.3641    1.4240 C.2      1 ZINC000040865591    0.6500
12     O12     3.2331   -7.1122    1.9908 O.2      1 ZINC000040865591   -0.5900
13     N13     1.8095   -8.5919    1.0360 N.pl3    1 ZINC000040865591   -0.7100
14     C14     0.5994   -8.5330    0.4441 C.2      1 ZINC000040865591    0.5100
15     O15    -0.0325   -9.4633   -0.0217 O.2      1 ZINC000040865591   -0.5500
16     C16    -2.3818   -4.5498   -0.0865 C.ar     1 ZINC000040865591   -0.1000
17     C17    -2.5236   -3.1921   -0.1300 C.ar     1 ZINC000040865591   -0.0900
18     H18     1.1647    1.8574   -0.3717 H        1 ZINC000040865591    0.0700
19     H19    -0.3889    1.8330   -1.2399 H        1 ZINC000040865591    0.0600
20     H20    -0.3643    1.9001    0.5386 H        1 ZINC000040865591    0.0700
21     H21     0.6263   -0.4281   -1.1687 H        1 ZINC000040865591    0.0900
22     H22     0.6510   -0.3610    0.6099 H        1 ZINC000040865591    0.0900
23     H23     0.7480   -2.2955   -0.1994 H        1 ZINC000040865591    0.1200
24     H24     1.0177   -4.7248   -0.1114 H        1 ZINC000040865591    0.1300
25     H25    -1.7387   -7.2185   -0.3732 H        1 ZINC000040865591    0.1400
26     H26     1.3040   -5.4966    1.2807 H        1 ZINC000040865591    0.4000
27     H27    -3.2553   -5.1841   -0.0553 H        1 ZINC000040865591    0.1300
28     H28    -3.5103   -2.7530   -0.1374 H        1 ZINC000040865591    0.1200
@<TRIPOS>BOND
1     1     2     1
2     1     18    1
3     1     19    1
4     1     20    1
5     2     3     1
6     2     21    1
7     2     22    1
8     3     4     1
9     4     17    ar
10    4     5     ar
11    5     6     ar
12    5     23    1
13    6     7     ar
14    6     24    1
15    7     8     1
16    7     16    ar
17    8     9     2
18    8     25    1
19    9     14    1
20    9     10    1
21    10    11    am
22    10    26    1
23    11    12    2
24    11    13    1
25    13    14    1
26    14    15    2
27    16    17    ar
28    16    27    1
29    17    28    1
@<TRIPOS>SUBSTRUCTURE
1   ZINC000040865591 1     RESIDUE    1   A     ZIN   1
