@<TRIPOS>MOLECULE
ZINC000000537987
59    63    1     0     0
SMALL
USER_CHARGES
@<TRIPOS>ATOM
1      C1     -0.0178    1.4608    0.0101 C.3      1 ZINC000000537987    0.0800
2      N2      0.0021   -0.0041    0.0020 N.pl3    1 ZINC000000537987   -0.4900
3      C3      0.0080   -0.7895   -1.1411 C.2      1 ZINC000000537987    0.0500
4      C4      0.0257   -2.0728   -0.8158 C.2      1 ZINC000000537987   -0.1700
5      C5      0.0508   -3.3795   -1.5677 C.3      1 ZINC000000537987   -0.0300
6      C6      0.7051   -4.4324   -0.6612 C.3      1 ZINC000000537987    0.1000
7      H7      1.7432   -4.1444   -0.4953 H        1 ZINC000000537987    0.0400
8      C8      0.0227   -4.5778    0.6997 C.3      1 ZINC000000537987   -0.0300
9      H9     -1.0088   -4.8973    0.5514 H        1 ZINC000000537987    0.0900
10     C10     0.7620   -5.6314    1.5297 C.3      1 ZINC000000537987   -0.1100
11     C11     0.7836   -6.9554    0.7615 C.3      1 ZINC000000537987   -0.1000
12     H12    -0.2374   -7.3065    0.6123 H        1 ZINC000000537987    0.0900
13     C13     1.5707   -7.9967    1.5597 C.3      1 ZINC000000537987    0.1400
14     N14     1.4904   -9.2936    0.8831 N.am     1 ZINC000000537987   -0.7100
15     C15     2.1129  -10.3674    1.4083 C.2      1 ZINC000000537987    0.6500
16     O16     2.7408  -10.2598    2.4431 O.2      1 ZINC000000537987   -0.5700
17     O17     2.0391  -11.5593    0.7865 O.3      1 ZINC000000537987   -0.3700
18     C18     2.7339  -12.6718    1.4092 C.3      1 ZINC000000537987    0.1300
19     C19     2.5405  -13.9136    0.5777 C.ar     1 ZINC000000537987   -0.1000
20     C20     1.4630  -14.7456    0.8182 C.ar     1 ZINC000000537987   -0.0900
21     C21     1.2855  -15.8847    0.0555 C.ar     1 ZINC000000537987   -0.1200
22     C22     2.1852  -16.1917   -0.9481 C.ar     1 ZINC000000537987   -0.1100
23     C23     3.2622  -15.3592   -1.1892 C.ar     1 ZINC000000537987   -0.1200
24     C24     3.4373  -14.2179   -0.4293 C.ar     1 ZINC000000537987   -0.0900
25     C25     1.4533   -6.7380   -0.5975 C.3      1 ZINC000000537987    0.0600
26     N26     0.6916   -5.7301   -1.3488 N.3      1 ZINC000000537987   -0.5400
27     C27     1.2108   -5.5889   -2.7157 C.3      1 ZINC000000537987    0.0100
28     C28     0.0338   -3.2783    1.4460 C.ar     1 ZINC000000537987   -0.0200
29     C29     0.0269   -2.1063    0.6468 C.ar     1 ZINC000000537987   -0.1400
30     C30     0.0233   -0.7876    1.1160 C.ar     1 ZINC000000537987    0.1100
31     C31     0.0356   -0.6012    2.4973 C.ar     1 ZINC000000537987   -0.1200
32     C32     0.0482   -1.7453    3.2838 C.ar     1 ZINC000000537987   -0.1000
33     C33     0.0374   -3.0799    2.7904 C.ar     1 ZINC000000537987   -0.1400
34     H34     1.0048    1.8381    0.0023 H        1 ZINC000000537987    0.0700
35     H35    -0.5450    1.8219   -0.8730 H        1 ZINC000000537987    0.0800
36     H36    -0.5280    1.8123    0.9069 H        1 ZINC000000537987    0.0800
37     H37    -0.0012   -0.4089   -2.1517 H        1 ZINC000000537987    0.1600
38     H38    -0.9669   -3.6841   -1.8119 H        1 ZINC000000537987    0.0800
39     H39     0.6327   -3.2676   -2.4826 H        1 ZINC000000537987    0.0800
40     H40     1.7842   -5.2996    1.7119 H        1 ZINC000000537987    0.0700
41     H41     0.2489   -5.7710    2.4812 H        1 ZINC000000537987    0.0800
42     H42     2.6136   -7.6878    1.6306 H        1 ZINC000000537987    0.0700
43     H43     1.1483   -8.0824    2.5609 H        1 ZINC000000537987    0.0800
44     H44     0.9891   -9.3795    0.0571 H        1 ZINC000000537987    0.4100
45     H45     3.7974  -12.4430    1.4785 H        1 ZINC000000537987    0.0800
46     H46     2.3320  -12.8375    2.4087 H        1 ZINC000000537987    0.0800
47     H47     0.7601  -14.5058    1.6023 H        1 ZINC000000537987    0.1300
48     H48     0.4441  -16.5351    0.2439 H        1 ZINC000000537987    0.1300
49     H49     2.0470  -17.0820   -1.5435 H        1 ZINC000000537987    0.1300
50     H50     3.9653  -15.5992   -1.9731 H        1 ZINC000000537987    0.1300
51     H51     4.2787  -13.5675   -0.6177 H        1 ZINC000000537987    0.1200
52     H52     2.4771   -6.3954   -0.4475 H        1 ZINC000000537987    0.0400
53     H53     1.4614   -7.6759   -1.1529 H        1 ZINC000000537987    0.0800
54     H54     1.0685   -6.5243   -3.2569 H        1 ZINC000000537987    0.0700
55     H55     0.6757   -4.7885   -3.2267 H        1 ZINC000000537987    0.0800
56     H56     2.2734   -5.3491   -2.6778 H        1 ZINC000000537987    0.0300
57     H57     0.0358    0.3862    2.9349 H        1 ZINC000000537987    0.1300
58     H58     0.0599   -1.6209    4.3565 H        1 ZINC000000537987    0.1200
59     H59     0.0477   -3.9086    3.4829 H        1 ZINC000000537987    0.1300
@<TRIPOS>BOND
1     1     2     1
2     1     34    1
3     1     35    1
4     1     36    1
5     2     30    1
6     2     3     1
7     3     4     2
8     3     37    1
9     4     29    1
10    4     5     1
11    5     6     1
12    5     38    1
13    5     39    1
14    6     7     1
15    6     26    1
16    6     8     1
17    8     9     1
18    8     10    1
19    8     28    1
20    10    11    1
21    10    40    1
22    10    41    1
23    11    12    1
24    11    13    1
25    11    25    1
26    13    14    1
27    13    42    1
28    13    43    1
29    14    15    am
30    14    44    1
31    15    16    2
32    15    17    1
33    17    18    1
34    18    19    1
35    18    45    1
36    18    46    1
37    19    24    ar
38    19    20    ar
39    20    21    ar
40    20    47    1
41    21    22    ar
42    21    48    1
43    22    23    ar
44    22    49    1
45    23    24    ar
46    23    50    1
47    24    51    1
48    25    26    1
49    25    52    1
50    25    53    1
51    26    27    1
52    27    54    1
53    27    55    1
54    27    56    1
55    28    33    ar
56    28    29    ar
57    29    30    ar
58    30    31    ar
59    31    32    ar
60    31    57    1
61    32    33    ar
62    32    58    1
63    33    59    1
@<TRIPOS>SUBSTRUCTURE
1   ZINC000000537987 1     RESIDUE    1   A     ZIN   1
