@<TRIPOS>MOLECULE
ZINC000005003985
  30   30    0    0    0
SMALL
USER_CHARGES
NO_NAME
@<TRIPOS>ATOM
    1 C1       -0.0184     1.5028     0.0103 C.3    1 <0>      -0.1100
    2 C2        0.0021    -0.0041     0.0020 C.ar   1 <0>      -0.1200
    3 C3        0.0058    -0.6871    -1.2000 C.ar   1 <0>      -0.0600
    4 C4        0.0245    -2.0685    -1.2116 C.ar   1 <0>      -0.1900
    5 C5        0.0401    -2.7713    -0.0143 C.ar   1 <0>       0.2300
    6 N6        0.0595    -4.1684    -0.0226 N.pl3  1 <0>      -0.7400
    7 C7        0.0634    -4.8934    -1.2956 C.3    1 <0>       0.1000
    8 C8        0.0857    -6.3991    -1.0250 C.3    1 <0>       0.0700
    9 H9       -0.7977    -6.6781    -0.4507 H      1 <0>       0.1300
   10 O10       1.2608    -6.7324    -0.2834 O.3    1 <0>      -0.5500
   11 C11       0.0898    -7.1562    -2.3545 C.3    1 <0>      -0.0400
   12 N12      -0.0096    -8.5990    -2.0967 N.4    1 <0>      -0.6300
   13 H13      -0.8668    -8.7939    -1.6013 H      1 <0>       0.4400
   14 H14      -0.0069    -9.0983    -2.9735 H      1 <0>       0.4400
   15 H15       0.7766    -8.8958    -1.5382 H      1 <0>       0.4400
   16 C16       0.0368    -2.0818     1.1928 C.ar   1 <0>      -0.1600
   17 Br17      0.0579    -3.0333     2.8268 Br     1 <0>      -0.0500
   18 C18       0.0229    -0.7004     1.1969 C.ar   1 <0>      -0.0400
   19 H19       1.0042     1.8801     0.0026 H      1 <0>       0.0700
   20 H20      -0.5455     1.8639    -0.8728 H      1 <0>       0.0700
   21 H21      -0.5286     1.8543     0.9071 H      1 <0>       0.0700
   22 H22      -0.0064    -0.1401    -2.1311 H      1 <0>       0.1300
   23 H23       0.0266    -2.6011    -2.1512 H      1 <0>       0.1300
   24 H24       0.0703    -4.6583     0.8146 H      1 <0>       0.4100
   25 H25      -0.8330    -4.6391    -1.8613 H      1 <0>       0.0800
   26 H26       0.9468    -4.6143    -1.8699 H      1 <0>       0.0800
   27 H27       2.0868    -6.5115    -0.7350 H      1 <0>       0.3900
   28 H28      -0.7595    -6.8356    -2.9578 H      1 <0>       0.1500
   29 H29       1.0157    -6.9457    -2.8897 H      1 <0>       0.1400
   30 H30       0.0203    -0.1637     2.1341 H      1 <0>       0.1400
@<TRIPOS>BOND
   1    1    2 1
   2    1   19 1
   3    1   20 1
   4    1   21 1
   5    2   18 ar
   6    2    3 ar
   7    3    4 ar
   8    3   22 1
   9    4    5 ar
  10    4   23 1
  11    5    6 1
  12    5   16 ar
  13    6    7 1
  14    6   24 1
  15    7    8 1
  16    7   25 1
  17    7   26 1
  18    8    9 1
  19    8   10 1
  20    8   11 1
  21   10   27 1
  22   11   12 1
  23   11   28 1
  24   11   29 1
  25   12   13 1
  26   12   14 1
  27   12   15 1
  28   16   17 1
  29   16   18 ar
  30   18   30 1
