@<TRIPOS>MOLECULE
ZINC000028129254
  47   52    0    0    0
SMALL
USER_CHARGES
NO_NAME
@<TRIPOS>ATOM
    1 O1        0.0020    -0.0040    -0.0031 O.2    1 <0>      -0.4400
    2 C2       -0.0144     1.2116     0.0063 C.2    1 <0>       0.5600
    3 N3       -1.1171     1.9785     0.0322 N.am   1 <0>      -0.6900
    4 C4       -0.7887     3.2815     0.0360 C.2    1 <0>       0.5500
    5 O5       -1.5709     4.2105     0.0572 O.2    1 <0>      -0.4400
    6 C6        0.6866     3.3939     0.0098 C.2    1 <0>      -0.0200
    7 C7        1.4761     4.6246     0.0053 C.2    1 <0>      -0.0600
    8 C8        2.4490     4.9849    -0.9175 C.2    1 <0>       0.1000
    9 N9        2.9276     6.1704    -0.5725 N.2    1 <0>      -0.4900
   10 C10       2.3154     6.6009     0.5289 C.2    1 <0>       0.2400
   11 C11       2.4598     7.7786     1.2827 C.2    1 <0>      -0.0800
   12 C12       1.6862     7.9638     2.3903 C.2    1 <0>      -0.0900
   13 C13       0.7592     6.9796     2.7619 C.2    1 <0>      -0.1300
   14 C14       0.6333     5.8521     2.0256 C.2    1 <0>       0.0600
   15 N15       1.3973     5.6607     0.9143 N.pl3  1 <0>      -0.3400
   16 C16       1.1705     2.0844    -0.0024 C.2    1 <0>      -0.0400
   17 C17       2.5825     1.6616    -0.0289 C.2    1 <0>      -0.1100
   18 C18       3.4634     1.6915     1.0187 C.2    1 <0>       0.1000
   19 N19       4.6936     1.2923     0.5913 N.pl3  1 <0>      -0.4900
   20 C20       5.9808     1.4494     1.2984 C.3    1 <0>       0.1100
   21 C21       6.9932     1.9905     0.2804 C.3    1 <0>      -0.0300
   22 N22       7.6407     0.9493    -0.5125 N.4    1 <0>      -0.5000
   23 H23       7.9425     1.3580    -1.3842 H      1 <0>       0.4300
   24 H24       8.4591     0.6350    -0.0130 H      1 <0>       0.4300
   25 C25       6.8222    -0.2131    -0.8143 C.3    1 <0>       0.0400
   26 C26       5.5388     0.1879    -1.4949 C.ar   1 <0>      -0.1700
   27 C27       4.5938     0.8402    -0.7002 C.ar   1 <0>       0.1000
   28 C28       3.3149     1.1200    -1.1849 C.ar   1 <0>      -0.0700
   29 C29       3.0353     0.8553    -2.5234 C.ar   1 <0>      -0.0300
   30 C30       4.0067     0.2900    -3.3243 C.ar   1 <0>      -0.1400
   31 C31       5.2556    -0.0483    -2.8131 C.ar   1 <0>      -0.0400
   32 H32      -2.0254     1.6384     0.0458 H      1 <0>       0.4400
   33 H33       2.7614     4.3993    -1.7695 H      1 <0>       0.1800
   34 H34       3.1773     8.5299     0.9875 H      1 <0>       0.1600
   35 H35       1.7872     8.8638     2.9786 H      1 <0>       0.1500
   36 H36       0.1444     7.1220     3.6383 H      1 <0>       0.1600
   37 H37      -0.0829     5.0988     2.3188 H      1 <0>       0.1600
   38 H38       3.2202     1.9864     2.0288 H      1 <0>       0.1800
   39 H39       5.8687     2.1550     2.1216 H      1 <0>       0.1400
   40 H40       6.3159     0.4843     1.6784 H      1 <0>       0.1000
   41 H41       6.4773     2.6728    -0.3952 H      1 <0>       0.1400
   42 H42       7.7611     2.5490     0.8157 H      1 <0>       0.1500
   43 H43       7.3799    -0.8828    -1.4689 H      1 <0>       0.1500
   44 H44       6.5870    -0.7352     0.1132 H      1 <0>       0.1300
   45 H45       2.0638     1.0907    -2.9322 H      1 <0>       0.1300
   46 H46       3.7953     0.1115    -4.3682 H      1 <0>       0.1400
   47 H47       5.9965    -0.5051    -3.4524 H      1 <0>       0.1400
@<TRIPOS>BOND
   1    1    2 2
   2    2   16 1
   3    2    3 am
   4    3    4 am
   5    3   32 1
   6    4    5 2
   7    4    6 1
   8    6    7 1
   9    6   16 2
  10    7   15 1
  11    7    8 2
  12    8    9 1
  13    8   33 1
  14    9   10 2
  15   10   15 1
  16   10   11 1
  17   11   12 2
  18   11   34 1
  19   12   13 1
  20   12   35 1
  21   13   14 2
  22   13   36 1
  23   14   15 1
  24   14   37 1
  25   16   17 1
  26   17   28 1
  27   17   18 2
  28   18   19 1
  29   18   38 1
  30   19   27 1
  31   19   20 1
  32   20   21 1
  33   20   39 1
  34   20   40 1
  35   21   22 1
  36   21   41 1
  37   21   42 1
  38   22   23 1
  39   22   24 1
  40   22   25 1
  41   25   26 1
  42   25   43 1
  43   25   44 1
  44   26   31 ar
  45   26   27 ar
  46   27   28 ar
  47   28   29 ar
  48   29   30 ar
  49   29   45 1
  50   30   31 ar
  51   30   46 1
  52   31   47 1
