@<TRIPOS>MOLECULE
ZINC000003817546
  40   41    0    0    0
SMALL
USER_CHARGES
NO_NAME
@<TRIPOS>ATOM
    1 C1       -0.5358     1.5907    -0.1016 C.3    1 <0>      -0.1700
    2 C2       -0.4706     0.1029    -0.3326 C.2    1 <0>       0.5000
    3 O3        0.2698    -0.3471    -1.1812 O.2    1 <0>      -0.4700
    4 N4       -1.2351    -0.7275     0.4039 N.am   1 <0>      -0.6400
    5 C5       -1.1750    -2.0982     0.1911 C.2    1 <0>       0.2700
    6 N6       -0.4148    -2.6798    -0.6849 N.2    1 <0>      -0.4700
    7 C7       -0.4798    -3.9921    -0.7577 C.2    1 <0>       0.1300
    8 C8        0.3455    -4.7990    -1.7265 C.3    1 <0>      -0.0900
    9 C9       -1.3475    -4.5538     0.1093 C.2    1 <0>      -0.2300
   10 C10      -1.6242    -5.9989     0.2491 C.ar   1 <0>      -0.0100
   11 C11      -0.5696    -6.9089     0.3370 C.ar   1 <0>      -0.0300
   12 C12      -0.8343    -8.2566     0.4674 C.ar   1 <0>      -0.1200
   13 C13      -2.1428    -8.7070     0.5111 C.ar   1 <0>       0.0500
   14 Cl14     -2.4678   -10.4043     0.6753 Cl     1 <0>      -0.0400
   15 C15      -3.1934    -7.8088     0.4247 C.ar   1 <0>      -0.6600
   16 S16      -4.8553    -8.3916     0.4818 S.o2   1 <0>       2.6900
   17 O17      -4.9333    -9.2733     1.5934 O.2    1 <0>      -0.9400
   18 O18      -5.6866    -7.2483     0.3368 O.2    1 <0>      -0.9500
   19 N19      -5.0961    -9.3192    -0.8687 N.am   1 <0>      -1.1100
   20 C20      -4.3508   -10.5685    -1.0417 C.3    1 <0>       0.1100
   21 C21      -5.0058   -11.4049    -2.1427 C.3    1 <0>       0.0700
   22 O22      -4.8920   -10.7208    -3.3921 O.3    1 <0>      -0.5700
   23 C23      -2.9415    -6.4586     0.2995 C.ar   1 <0>       0.0000
   24 S24      -2.0867    -3.2610     1.0507 S.3    1 <0>       0.1500
   25 H25       0.1472     2.0948    -0.7852 H      1 <0>       0.1000
   26 H26      -1.5524     1.9417    -0.2790 H      1 <0>       0.0900
   27 H27      -0.2495     1.8116     0.9267 H      1 <0>       0.0900
   28 H28      -1.8273    -0.3676     1.0826 H      1 <0>       0.4200
   29 H29       1.2506    -5.1484    -1.2297 H      1 <0>       0.0800
   30 H30      -0.2335    -5.6557    -2.0714 H      1 <0>       0.0800
   31 H31       0.6164    -4.1765    -2.5793 H      1 <0>       0.0800
   32 H32       0.4515    -6.5589     0.3027 H      1 <0>       0.1500
   33 H33      -0.0191    -8.9618     0.5352 H      1 <0>       0.1500
   34 H34      -5.7306    -9.0354    -1.5452 H      1 <0>       0.4300
   35 H35      -3.3218   -10.3421    -1.3210 H      1 <0>       0.0800
   36 H36      -4.3585   -11.1287    -0.1066 H      1 <0>       0.1000
   37 H37      -4.5062   -12.3713    -2.2108 H      1 <0>       0.0600
   38 H38      -6.0590   -11.5563    -1.9060 H      1 <0>       0.0600
   39 H39      -5.2867   -11.1942    -4.1372 H      1 <0>       0.3800
   40 H40      -3.7617    -5.7591     0.2323 H      1 <0>       0.1500
@<TRIPOS>BOND
   1    1    2 1
   2    1   25 1
   3    1   26 1
   4    1   27 1
   5    2    3 2
   6    2    4 am
   7    4    5 1
   8    4   28 1
   9    5   24 1
  10    5    6 2
  11    6    7 1
  12    7    8 1
  13    7    9 2
  14    8   29 1
  15    8   30 1
  16    8   31 1
  17    9   10 1
  18    9   24 1
  19   10   23 ar
  20   10   11 ar
  21   11   12 ar
  22   11   32 1
  23   12   13 ar
  24   12   33 1
  25   13   14 1
  26   13   15 ar
  27   15   16 1
  28   15   23 ar
  29   16   17 2
  30   16   18 2
  31   16   19 am
  32   19   20 1
  33   19   34 1
  34   20   21 1
  35   20   35 1
  36   20   36 1
  37   21   22 1
  38   21   37 1
  39   21   38 1
  40   22   39 1
  41   23   40 1
