@<TRIPOS>MOLECULE
ZINC000016052714
62    67    1     0     0
SMALL
USER_CHARGES
@<TRIPOS>ATOM
1      C1     -0.0225    1.8097    0.0120 C.3      1 ZINC000016052714   -0.6700
2      S2      0.0021   -0.0041    0.0020 S.o2     1 ZINC000016052714    2.6100
3      O3      0.8448   -0.4970    1.0346 O.2      1 ZINC000016052714   -0.9500
4      O4     -1.3093   -0.5195   -0.1821 O.2      1 ZINC000016052714   -0.9500
5      N5      0.7961   -0.3989   -1.3965 N.am     1 ZINC000016052714   -1.0000
6      C6      0.0597   -0.5844   -2.6561 C.3      1 ZINC000016052714    0.1300
7      C7      0.7264    0.2694   -3.7400 C.3      1 ZINC000016052714    0.0400
8      N8      2.1576   -0.0557   -3.8036 N.3      1 ZINC000016052714   -0.5300
9      C9      2.7994    0.6138   -4.9428 C.3      1 ZINC000016052714    0.1200
10     C10     4.1938    0.0716   -5.1235 C.2      1 ZINC000016052714   -0.1300
11     C11     4.4987   -0.9643   -5.8877 C.2      1 ZINC000016052714   -0.1000
12     C12     5.9046   -1.3101   -5.9120 C.ar     1 ZINC000016052714    0.2000
13     N13     6.5438   -2.2960   -6.5770 N.ar     1 ZINC000016052714   -0.5000
14     C14     7.8489   -2.4532   -6.4696 C.ar     1 ZINC000016052714    0.4000
15     C15     8.5009   -3.5496   -7.2196 C.ar     1 ZINC000016052714    0.0200
16     C16     9.8641   -3.7522   -7.1302 C.ar     1 ZINC000016052714   -0.0800
17     C17    10.4906   -4.7796   -7.8301 C.ar     1 ZINC000016052714   -0.0900
18     C18     9.8130   -5.6365   -8.6335 C.ar     1 ZINC000016052714   -0.0700
19     C19     8.4166   -5.5162   -8.7936 C.ar     1 ZINC000016052714    0.1000
20     N20     7.4998   -6.1727   -9.4818 N.2      1 ZINC000016052714   -0.3000
21     N21     6.2502   -5.5875   -9.2465 N.pl3    1 ZINC000016052714   -0.4300
22     C22     6.3820   -4.5533   -8.4024 C.2      1 ZINC000016052714    0.1000
23     C23     7.7137   -4.4469   -8.0677 C.ar     1 ZINC000016052714   -0.1800
24     N24     8.5993   -1.6593   -5.7102 N.ar     1 ZINC000016052714   -0.5400
25     C25     8.0543   -0.6660   -5.0227 C.ar     1 ZINC000016052714    0.4200
26     N26     8.8414    0.1575   -4.2341 N.3      1 ZINC000016052714   -0.4700
27     C27     8.6806    1.5669   -4.6198 C.3      1 ZINC000016052714    0.0200
28     C28     9.5194    2.4446   -3.6870 C.3      1 ZINC000016052714    0.0700
29     O29    10.8842    2.0207   -3.7412 O.3      1 ZINC000016052714   -0.3800
30     C30    11.0773    0.6529   -3.3710 C.3      1 ZINC000016052714    0.0600
31     C31    10.2544   -0.2429   -4.3006 C.3      1 ZINC000016052714    0.0300
32     C32     6.6651   -0.4595   -5.1055 C.ar     1 ZINC000016052714   -0.2800
33     S33     5.6220    0.7375   -4.3537 S.3      1 ZINC000016052714    0.1500
34     C34     2.8366    0.2800   -2.5449 C.3      1 ZINC000016052714    0.0300
35     C35     2.2571   -0.5673   -1.4133 C.3      1 ZINC000016052714    0.1300
36     H36     1.0001    2.1870    0.0043 H        1 ZINC000016052714    0.1300
37     H37    -0.5497    2.1708   -0.8711 H        1 ZINC000016052714    0.1300
38     H38    -0.5327    2.1613    0.9088 H        1 ZINC000016052714    0.1300
39     H39     0.0902   -1.6345   -2.9468 H        1 ZINC000016052714    0.0800
40     H40    -0.9750   -0.2676   -2.5254 H        1 ZINC000016052714    0.1000
41     H41     0.2628    0.0603   -4.7041 H        1 ZINC000016052714    0.0900
42     H42     0.6036    1.3251   -3.4982 H        1 ZINC000016052714    0.0400
43     H43     2.2183    0.4303   -5.8465 H        1 ZINC000016052714    0.1000
44     H44     2.8482    1.6861   -4.7537 H        1 ZINC000016052714    0.0500
45     H45     3.7559   -1.5104   -6.4501 H        1 ZINC000016052714    0.1600
46     H46    10.4561   -3.1002   -6.5050 H        1 ZINC000016052714    0.1400
47     H47    11.5593   -4.8988   -7.7296 H        1 ZINC000016052714    0.1300
48     H48    10.3467   -6.4172   -9.1552 H        1 ZINC000016052714    0.1300
49     H49     5.4133   -5.8852   -9.6363 H        1 ZINC000016052714    0.4400
50     H50     5.5844   -3.9185   -8.0458 H        1 ZINC000016052714    0.2000
51     H51     9.0165    1.7035   -5.6478 H        1 ZINC000016052714    0.0700
52     H52     7.6309    1.8490   -4.5387 H        1 ZINC000016052714    0.0900
53     H53     9.4485    3.4849   -4.0047 H        1 ZINC000016052714    0.1100
54     H54     9.1488    2.3489   -2.6664 H        1 ZINC000016052714    0.0700
55     H55    12.1332    0.3973   -3.4601 H        1 ZINC000016052714    0.1100
56     H56    10.7521    0.5051   -2.3412 H        1 ZINC000016052714    0.0600
57     H57    10.3534   -1.2820   -3.9865 H        1 ZINC000016052714    0.1000
58     H58    10.6154   -0.1353   -5.3234 H        1 ZINC000016052714    0.0700
59     H59     3.9034    0.0786   -2.6423 H        1 ZINC000016052714    0.0900
60     H60     2.6844    1.3356   -2.3198 H        1 ZINC000016052714    0.0400
61     H61     2.6758   -0.2420   -0.4610 H        1 ZINC000016052714    0.1000
62     H62     2.4968   -1.6172   -1.5824 H        1 ZINC000016052714    0.0800
@<TRIPOS>BOND
1     1     2     1
2     1     36    1
3     1     37    1
4     1     38    1
5     2     3     2
6     2     4     2
7     2     5     am
8     5     35    1
9     5     6     1
10    6     7     1
11    6     39    1
12    6     40    1
13    7     8     1
14    7     41    1
15    7     42    1
16    8     9     1
17    8     34    1
18    9     10    1
19    9     43    1
20    9     44    1
21    10    33    1
22    10    11    2
23    11    12    1
24    11    45    1
25    12    32    ar
26    12    13    ar
27    13    14    ar
28    14    15    1
29    14    24    ar
30    15    23    ar
31    15    16    ar
32    16    17    ar
33    16    46    1
34    17    18    ar
35    17    47    1
36    18    19    ar
37    18    48    1
38    19    23    ar
39    19    20    2
40    20    21    1
41    21    22    1
42    21    49    1
43    22    23    2
44    22    50    1
45    24    25    ar
46    25    26    1
47    25    32    ar
48    26    31    1
49    26    27    1
50    27    28    1
51    27    51    1
52    27    52    1
53    28    29    1
54    28    53    1
55    28    54    1
56    29    30    1
57    30    31    1
58    30    55    1
59    30    56    1
60    31    57    1
61    31    58    1
62    32    33    1
63    34    35    1
64    34    59    1
65    34    60    1
66    35    61    1
67    35    62    1
@<TRIPOS>SUBSTRUCTURE
1   ZINC000016052714 1     RESIDUE    1   A     ZIN   1
