@<TRIPOS>MOLECULE
ZINC000000007508
29    31    1     0     0
SMALL
USER_CHARGES
@<TRIPOS>ATOM
1      O1     -0.0036    0.0346    0.2830 O.2      1 ZINC000000007508   -0.4800
2      C2     -0.0145    1.2075   -0.0239 C.2      1 ZINC000000007508    0.5000
3      N3      1.1456    1.8821   -0.1485 N.am     1 ZINC000000007508   -0.5900
4      C4      1.2499    3.2998   -0.5083 C.3      1 ZINC000000007508    0.0900
5      C5      2.7584    3.6065   -0.5239 C.3      1 ZINC000000007508   -0.1000
6      C6      3.4006    2.2850   -0.1576 C.2      1 ZINC000000007508   -0.2000
7      C7      4.7247    2.0442   -0.0403 C.2      1 ZINC000000007508    0.0200
8      C8      5.6854    3.1505   -0.1523 C.ar     1 ZINC000000007508   -0.0700
9      C9      6.8718    2.9797   -0.8746 C.ar     1 ZINC000000007508   -0.0800
10     C10     7.7704    4.0186   -0.9777 C.ar     1 ZINC000000007508   -0.1000
11     C11     7.5043    5.2370   -0.3671 C.ar     1 ZINC000000007508    0.0500
12     O12     8.2198    6.3973   -0.3219 O.3      1 ZINC000000007508   -0.3100
13     C13     7.2833    7.4122    0.0849 C.3      1 ZINC000000007508    0.2100
14     O14     6.3026    6.6873    0.8502 O.3      1 ZINC000000007508   -0.3100
15     C15     6.3226    5.4150    0.3553 C.ar     1 ZINC000000007508    0.0300
16     C16     5.4142    4.3808    0.4585 C.ar     1 ZINC000000007508   -0.0800
17     C17     2.3583    1.3507    0.0447 C.2      1 ZINC000000007508    0.5500
18     O18     2.5443    0.1884    0.3531 O.2      1 ZINC000000007508   -0.4700
19     H19    -0.9535    1.7105   -0.2017 H        1 ZINC000000007508    0.1500
20     H20     0.8194    3.4717   -1.4948 H        1 ZINC000000007508    0.0900
21     H21     0.7469    3.9164    0.2367 H        1 ZINC000000007508    0.0900
22     H22     3.0743    3.9230   -1.5179 H        1 ZINC000000007508    0.1000
23     H23     3.0016    4.3684    0.2167 H        1 ZINC000000007508    0.1000
24     H24     5.0772    1.0386    0.1357 H        1 ZINC000000007508    0.1500
25     H25     7.0828    2.0336   -1.3507 H        1 ZINC000000007508    0.1500
26     H26     8.6856    3.8849   -1.5354 H        1 ZINC000000007508    0.1400
27     H27     7.7758    8.1611    0.7051 H        1 ZINC000000007508    0.1400
28     H28     6.8216    7.8781   -0.7857 H        1 ZINC000000007508    0.0900
29     H29     4.4972    4.5196    1.0119 H        1 ZINC000000007508    0.1400
@<TRIPOS>BOND
1     1     2     2
2     2     3     am
3     2     19    1
4     3     17    am
5     3     4     1
6     4     5     1
7     4     20    1
8     4     21    1
9     5     6     1
10    5     22    1
11    5     23    1
12    6     7     2
13    6     17    1
14    7     8     1
15    7     24    1
16    8     16    ar
17    8     9     ar
18    9     10    ar
19    9     25    1
20    10    11    ar
21    10    26    1
22    11    15    ar
23    11    12    1
24    12    13    1
25    13    14    1
26    13    27    1
27    13    28    1
28    14    15    1
29    15    16    ar
30    16    29    1
31    17    18    2
@<TRIPOS>SUBSTRUCTURE
1   ZINC000000007508 1     RESIDUE    1   A     ZIN   1
