@<TRIPOS>MOLECULE
ZINC000000150557
27    28    1     0     0
SMALL
USER_CHARGES
@<TRIPOS>ATOM
1      O1     -1.1460    0.5720   -1.0081 O.2      1 ZINC000000150557   -0.1100
2      N2     -0.8823    1.4266   -0.1813 N.pl3    1 ZINC000000150557    0.0100
3      O3      0.2161    1.4469    0.3446 O.2      1 ZINC000000150557   -0.1300
4      C4     -1.8946    2.4443    0.1798 C.ar     1 ZINC000000150557    0.0700
5      C5     -3.2238    2.0851    0.2977 C.ar     1 ZINC000000150557   -0.0700
6      C6     -4.1701    3.0366    0.6353 C.ar     1 ZINC000000150557    0.0100
7      Cl7    -5.8400    2.5859    0.7841 Cl       1 ZINC000000150557   -0.0200
8      C8     -3.7849    4.3469    0.8546 C.ar     1 ZINC000000150557   -0.0900
9      C9     -2.4549    4.7051    0.7364 C.ar     1 ZINC000000150557    0.0000
10     C10    -1.5094    3.7530    0.4047 C.ar     1 ZINC000000150557   -0.6200
11     S11     0.1856    4.2102    0.2547 S.o2     1 ZINC000000150557    2.5800
12     O12     0.7120    3.4510   -0.8251 O.2      1 ZINC000000150557   -0.9200
13     O13     0.2236    5.6300    0.2977 O.2      1 ZINC000000150557   -0.9200
14     C14     1.0084    3.6462    1.7071 C.ar     1 ZINC000000150557   -0.6500
15     C15     0.6971    4.1974    2.9360 C.ar     1 ZINC000000150557   -0.0300
16     C16     1.3426    3.7549    4.0755 C.ar     1 ZINC000000150557   -0.1400
17     C17     2.2992    2.7609    3.9861 C.ar     1 ZINC000000150557   -0.0600
18     C18     2.6098    2.2091    2.7573 C.ar     1 ZINC000000150557   -0.1400
19     C19     1.9612    2.6486    1.6184 C.ar     1 ZINC000000150557    0.0200
20     H20    -3.5241    1.0619    0.1260 H        1 ZINC000000150557    0.1700
21     H21    -4.5230    5.0901    1.1178 H        1 ZINC000000150557    0.1700
22     H22    -2.1541    5.7281    0.9076 H        1 ZINC000000150557    0.1800
23     H23    -0.0502    4.9740    3.0058 H        1 ZINC000000150557    0.1300
24     H24     1.0999    4.1861    5.0355 H        1 ZINC000000150557    0.1300
25     H25     2.8040    2.4158    4.8763 H        1 ZINC000000150557    0.1300
26     H26     3.3574    1.4328    2.6875 H        1 ZINC000000150557    0.1400
27     H27     2.2039    2.2175    0.6584 H        1 ZINC000000150557    0.1500
@<TRIPOS>BOND
1     1     2     2
2     2     3     2
3     2     4     1
4     4     10    ar
5     4     5     ar
6     5     6     ar
7     5     20    1
8     6     7     1
9     6     8     ar
10    8     9     ar
11    8     21    1
12    9     10    ar
13    9     22    1
14    10    11    1
15    11    12    2
16    11    13    2
17    11    14    1
18    14    19    ar
19    14    15    ar
20    15    16    ar
21    15    23    1
22    16    17    ar
23    16    24    1
24    17    18    ar
25    17    25    1
26    18    19    ar
27    18    26    1
28    19    27    1
@<TRIPOS>SUBSTRUCTURE
1   ZINC000000150557 1     RESIDUE    1   A     ZIN   1
