@<TRIPOS>MOLECULE
ZINC000001494900
69    75    1     0     0
SMALL
USER_CHARGES
@<TRIPOS>ATOM
1      C1     -0.0178    1.4608    0.0101 C.3      1 ZINC000001494900    0.0700
2      N2      0.0021   -0.0041    0.0020 N.pl3    1 ZINC000001494900   -0.4800
3      C3      0.0078   -0.7756   -1.1193 C.2      1 ZINC000001494900    0.1100
4      C4      0.0272   -2.0937   -0.7697 C.2      1 ZINC000001494900   -0.1500
5      C5      0.0390   -3.2475   -1.6846 C.2      1 ZINC000001494900   -0.0100
6      C6      1.1165   -3.7121   -2.4297 C.2      1 ZINC000001494900   -0.0500
7      C7      2.4773   -3.1505   -2.4636 C.2      1 ZINC000001494900   -0.1000
8      C8      3.4356   -3.2757   -1.5013 C.2      1 ZINC000001494900    0.0800
9      N9      4.5635   -2.6200   -1.8895 N.pl3    1 ZINC000001494900   -0.4800
10     C10     5.7982   -2.5416   -1.1049 C.3      1 ZINC000001494900    0.1400
11     C11     5.5065   -1.8773    0.2438 C.3      1 ZINC000001494900   -0.1600
12     C12     6.7820   -1.8704    1.0891 C.3      1 ZINC000001494900    0.0000
13     N13     7.2351   -3.2491    1.3090 N.4      1 ZINC000001494900   -0.3800
14     H14     6.4966   -3.7790    1.7470 H        1 ZINC000001494900    0.4300
15     C15     8.4153   -3.2415    2.1836 C.3      1 ZINC000001494900    0.0600
16     C16     8.9550   -4.6427    2.3112 C.ar     1 ZINC000001494900    0.0500
17     C17     9.9827   -5.0566    1.4852 C.ar     1 ZINC000001494900   -0.1500
18     C18    10.4724   -6.3478    1.6110 C.ar     1 ZINC000001494900   -0.0700
19     C19     9.9074   -7.1776    2.5671 C.ar     1 ZINC000001494900   -0.1300
20     C20     8.8820   -6.6937    3.3576 C.ar     1 ZINC000001494900    0.1100
21     N21     8.4448   -5.4581    3.2135 N.ar     1 ZINC000001494900   -0.4700
22     C22     7.5850   -3.8690    0.0253 C.3      1 ZINC000001494900   -0.0100
23     C23     6.3405   -3.9528   -0.8610 C.3      1 ZINC000001494900   -0.1600
24     C24     4.3781   -2.0403   -3.1275 C.ar     1 ZINC000001494900    0.1000
25     C25     5.1971   -1.2767   -3.9524 C.ar     1 ZINC000001494900   -0.1300
26     C26     4.7226   -0.8253   -5.1651 C.ar     1 ZINC000001494900   -0.0900
27     C27     3.4315   -1.1244   -5.5747 C.ar     1 ZINC000001494900   -0.1300
28     C28     2.6043   -1.8791   -4.7716 C.ar     1 ZINC000001494900   -0.0700
29     C29     3.0730   -2.3482   -3.5466 C.ar     1 ZINC000001494900   -0.0800
30     C30     0.6203   -4.8839   -3.1806 C.2      1 ZINC000001494900    0.5600
31     O31     1.2740   -5.5635   -3.9466 O.2      1 ZINC000001494900   -0.4500
32     N32    -0.6746   -5.0727   -2.8750 N.am     1 ZINC000001494900   -0.6900
33     C33    -1.0904   -4.1494   -1.9916 C.2      1 ZINC000001494900    0.5500
34     O34    -2.2107   -4.0648   -1.5293 O.2      1 ZINC000001494900   -0.4400
35     C35     0.0340   -2.1368    0.7032 C.ar     1 ZINC000001494900   -0.0800
36     C36     0.0519   -3.1678    1.6397 C.ar     1 ZINC000001494900   -0.0800
37     C37     0.0535   -2.8677    2.9846 C.ar     1 ZINC000001494900   -0.1400
38     C38     0.0369   -1.5466    3.4072 C.ar     1 ZINC000001494900   -0.1000
39     C39     0.0190   -0.5165    2.4917 C.ar     1 ZINC000001494900   -0.1200
40     C40     0.0236   -0.7983    1.1297 C.ar     1 ZINC000001494900    0.0900
41     H41     1.0048    1.8381    0.0023 H        1 ZINC000001494900    0.0700
42     H42    -0.5450    1.8219   -0.8730 H        1 ZINC000001494900    0.0900
43     H43    -0.5280    1.8123    0.9069 H        1 ZINC000001494900    0.0900
44     H44    -0.0015   -0.4009   -2.1322 H        1 ZINC000001494900    0.1700
45     H45     3.3174   -3.8134   -0.5721 H        1 ZINC000001494900    0.1700
46     H46     6.5389   -1.9553   -1.6487 H        1 ZINC000001494900    0.1200
47     H47     5.1727   -0.8526    0.0802 H        1 ZINC000001494900    0.1200
48     H48     4.7282   -2.4357    0.7638 H        1 ZINC000001494900    0.1000
49     H49     7.5595   -1.3115    0.5683 H        1 ZINC000001494900    0.1400
50     H50     6.5779   -1.3979    2.0500 H        1 ZINC000001494900    0.1400
51     H51     9.1810   -2.5949    1.7550 H        1 ZINC000001494900    0.1400
52     H52     8.1350   -2.8690    3.1688 H        1 ZINC000001494900    0.1500
53     H53    10.3989   -4.3830    0.7508 H        1 ZINC000001494900    0.1400
54     H54    11.2747   -6.6988    0.9789 H        1 ZINC000001494900    0.1500
55     H55    10.2637   -8.1893    2.6925 H        1 ZINC000001494900    0.1500
56     H56     8.4362   -7.3339    4.1045 H        1 ZINC000001494900    0.1700
57     H57     8.3454   -3.2675   -0.4728 H        1 ZINC000001494900    0.1400
58     H58     7.9738   -4.8721    0.2007 H        1 ZINC000001494900    0.1300
59     H59     5.5794   -4.5543   -0.3639 H        1 ZINC000001494900    0.1000
60     H60     6.6027   -4.4117   -1.8143 H        1 ZINC000001494900    0.1200
61     H61     6.2037   -1.0375   -3.6429 H        1 ZINC000001494900    0.1200
62     H62     5.3621   -0.2327   -5.8025 H        1 ZINC000001494900    0.1300
63     H63     3.0727   -0.7638   -6.5274 H        1 ZINC000001494900    0.1300
64     H64     1.5993   -2.1099   -5.0925 H        1 ZINC000001494900    0.1200
65     H65    -1.2305   -5.7798   -3.2380 H        1 ZINC000001494900    0.4300
66     H66     0.0642   -4.1972    1.3134 H        1 ZINC000001494900    0.1200
67     H67     0.0674   -3.6649    3.7131 H        1 ZINC000001494900    0.1200
68     H68     0.0376   -1.3230    4.4638 H        1 ZINC000001494900    0.1300
69     H69     0.0062    0.5086    2.8315 H        1 ZINC000001494900    0.1200
@<TRIPOS>BOND
1     1     2     1
2     1     41    1
3     1     42    1
4     1     43    1
5     2     40    1
6     2     3     1
7     3     4     2
8     3     44    1
9     4     5     1
10    4     35    1
11    5     33    1
12    5     6     2
13    6     7     1
14    6     30    1
15    7     29    1
16    7     8     2
17    8     9     1
18    8     45    1
19    9     10    1
20    9     24    1
21    10    23    1
22    10    11    1
23    10    46    1
24    11    12    1
25    11    47    1
26    11    48    1
27    12    13    1
28    12    49    1
29    12    50    1
30    13    14    1
31    13    15    1
32    13    22    1
33    15    16    1
34    15    51    1
35    15    52    1
36    16    21    ar
37    16    17    ar
38    17    18    ar
39    17    53    1
40    18    19    ar
41    18    54    1
42    19    20    ar
43    19    55    1
44    20    21    ar
45    20    56    1
46    22    23    1
47    22    57    1
48    22    58    1
49    23    59    1
50    23    60    1
51    24    29    ar
52    24    25    ar
53    25    26    ar
54    25    61    1
55    26    27    ar
56    26    62    1
57    27    28    ar
58    27    63    1
59    28    29    ar
60    28    64    1
61    30    31    2
62    30    32    am
63    32    33    am
64    32    65    1
65    33    34    2
66    35    40    ar
67    35    36    ar
68    36    37    ar
69    36    66    1
70    37    38    ar
71    37    67    1
72    38    39    ar
73    38    68    1
74    39    40    ar
75    39    69    1
@<TRIPOS>SUBSTRUCTURE
1   ZINC000001494900 1     RESIDUE    1   A     ZIN   1
