@<TRIPOS>MOLECULE
ZINC000001626613
31    34    1     0     0
SMALL
USER_CHARGES
@<TRIPOS>ATOM
1      O1      0.0021   -0.0041    0.0020 O.2      1 ZINC000001626613   -0.5300
2      C2     -0.0144    1.2087    0.0087 C.2      1 ZINC000001626613    0.5300
3      C3     -1.3428    1.9235    0.0315 C.3      1 ZINC000001626613   -0.0600
4      C4     -1.4358    2.7561   -1.2233 C.2      1 ZINC000001626613   -0.1500
5      C5     -0.5458    3.7163   -1.5813 C.2      1 ZINC000001626613    0.1200
6      N6     -0.9138    4.2505   -2.8009 N.pl3    1 ZINC000001626613   -0.5800
7      C7     -2.0674    3.6602   -3.2320 C.ar     1 ZINC000001626613    0.1100
8      C8     -2.8405    3.8516   -4.3745 C.ar     1 ZINC000001626613   -0.1300
9      C9     -3.9763    3.0693   -4.5020 C.ar     1 ZINC000001626613   -0.0900
10     C10    -4.3418    2.1346   -3.5476 C.ar     1 ZINC000001626613   -0.1500
11     C11    -3.5995    1.9232   -2.4117 C.ar     1 ZINC000001626613   -0.0600
12     C12    -2.4460    2.6999   -2.2569 C.ar     1 ZINC000001626613   -0.1000
13     C13     0.6160    4.1384   -0.7697 C.ar     1 ZINC000001626613   -0.0600
14     C14     0.9699    5.4923   -0.7865 C.ar     1 ZINC000001626613   -0.0900
15     C15     2.0213    5.9467   -0.0207 C.ar     1 ZINC000001626613   -0.1300
16     C16     2.7289    5.0608    0.7732 C.ar     1 ZINC000001626613   -0.0900
17     C17     2.3990    3.7227    0.7870 C.ar     1 ZINC000001626613   -0.1400
18     C18     1.3505    3.2381    0.0025 C.ar     1 ZINC000001626613    0.1800
19     N19     1.1397    1.8708    0.0012 N.am     1 ZINC000001626613   -0.6600
20     H20    -2.1539    1.1957    0.0531 H        1 ZINC000001626613    0.1100
21     H21    -1.4005    2.5686    0.9082 H        1 ZINC000001626613    0.1000
22     H22    -0.4268    4.9402   -3.2786 H        1 ZINC000001626613    0.4200
23     H23    -2.5672    4.5771   -5.1264 H        1 ZINC000001626613    0.1300
24     H24    -4.5987    3.1926   -5.3760 H        1 ZINC000001626613    0.1200
25     H25    -5.2393    1.5539   -3.7014 H        1 ZINC000001626613    0.1200
26     H26    -3.8925    1.1923   -1.6726 H        1 ZINC000001626613    0.1300
27     H27     0.4162    6.1846   -1.4033 H        1 ZINC000001626613    0.1300
28     H28     2.2929    6.9918   -0.0402 H        1 ZINC000001626613    0.1300
29     H29     3.5437    5.4198    1.3845 H        1 ZINC000001626613    0.1300
30     H30     2.9579    3.0414    1.4113 H        1 ZINC000001626613    0.1400
31     H31     1.9395    1.3220   -0.0113 H        1 ZINC000001626613    0.4100
@<TRIPOS>BOND
1     1     2     2
2     2     19    am
3     2     3     1
4     3     4     1
5     3     20    1
6     3     21    1
7     4     12    1
8     4     5     2
9     5     6     1
10    5     13    1
11    6     7     1
12    6     22    1
13    7     12    ar
14    7     8     ar
15    8     9     ar
16    8     23    1
17    9     10    ar
18    9     24    1
19    10    11    ar
20    10    25    1
21    11    12    ar
22    11    26    1
23    13    18    ar
24    13    14    ar
25    14    15    ar
26    14    27    1
27    15    16    ar
28    15    28    1
29    16    17    ar
30    16    29    1
31    17    18    ar
32    17    30    1
33    18    19    1
34    19    31    1
@<TRIPOS>SUBSTRUCTURE
1   ZINC000001626613 1     RESIDUE    1   A     ZIN   1
