@<TRIPOS>MOLECULE
ZINC000019860498
31    32    1     0     0
SMALL
USER_CHARGES
@<TRIPOS>ATOM
1      C1     -0.0225    1.8097    0.0120 C.3      1 ZINC000019860498   -0.1400
2      S2      0.0021   -0.0041    0.0020 S.3      1 ZINC000019860498   -0.1300
3      C3      0.8516   -0.3807   -1.4950 C.ar     1 ZINC000019860498   -0.0800
4      C4      1.3090    0.6501   -2.3123 C.ar     1 ZINC000019860498   -0.1400
5      C5      1.9704    0.3610   -3.4779 C.ar     1 ZINC000019860498   -0.0800
6      C6      2.1861   -0.9723   -3.8460 C.ar     1 ZINC000019860498   -0.0500
7      C7      2.8953   -1.2865   -5.0948 C.2      1 ZINC000019860498    0.1200
8      N8      3.0953   -2.5291   -5.4361 N.2      1 ZINC000019860498   -0.4000
9      C9      3.7553   -2.8215   -6.5982 C.ar     1 ZINC000019860498   -0.0700
10     C10     4.8658   -2.0687   -6.9831 C.ar     1 ZINC000019860498   -0.0300
11     C11     5.5273   -2.3691   -8.1562 C.ar     1 ZINC000019860498   -0.1700
12     N12     6.7053   -1.5705   -8.5634 N.pl3    1 ZINC000019860498    0.0700
13     O13     7.0888   -0.6504   -7.8635 O.2      1 ZINC000019860498   -0.2300
14     O14     7.2910   -1.8335   -9.5984 O.2      1 ZINC000019860498   -0.2200
15     C15     5.0943   -3.4141   -8.9532 C.ar     1 ZINC000019860498   -0.0100
16     C16     3.9952   -4.1672   -8.5824 C.ar     1 ZINC000019860498   -0.2400
17     C17     3.3234   -3.8825   -7.4060 C.ar     1 ZINC000019860498    0.3300
18     O18     2.2438   -4.6222   -7.0408 O.3      1 ZINC000019860498   -0.6400
19     C19     1.7252   -2.0055   -3.0217 C.ar     1 ZINC000019860498   -0.0600
20     C20     1.0689   -1.7084   -1.8552 C.ar     1 ZINC000019860498   -0.1000
21     H21     1.0001    2.1870    0.0043 H        1 ZINC000019860498    0.0800
22     H22    -0.5497    2.1708   -0.8711 H        1 ZINC000019860498    0.0800
23     H23    -0.5327    2.1613    0.9088 H        1 ZINC000019860498    0.1100
24     H24     1.1423    1.6784   -2.0276 H        1 ZINC000019860498    0.1200
25     H25     2.3243    1.1609   -4.1115 H        1 ZINC000019860498    0.1300
26     H26     3.2506   -0.4882   -5.7295 H        1 ZINC000019860498    0.1000
27     H27     5.2065   -1.2521   -6.3638 H        1 ZINC000019860498    0.1300
28     H28     5.6173   -3.6426   -9.8701 H        1 ZINC000019860498    0.1300
29     H29     3.6630   -4.9813   -9.2096 H        1 ZINC000019860498    0.1300
30     H30     1.8894   -3.0354   -3.3025 H        1 ZINC000019860498    0.1400
31     H31     0.7129   -2.5050   -1.2187 H        1 ZINC000019860498    0.1300
@<TRIPOS>BOND
1     1     2     1
2     1     21    1
3     1     22    1
4     1     23    1
5     2     3     1
6     3     20    ar
7     3     4     ar
8     4     5     ar
9     4     24    1
10    5     6     ar
11    5     25    1
12    6     7     1
13    6     19    ar
14    7     8     2
15    7     26    1
16    8     9     1
17    9     17    ar
18    9     10    ar
19    10    11    ar
20    10    27    1
21    11    12    1
22    11    15    ar
23    12    13    2
24    12    14    2
25    15    16    ar
26    15    28    1
27    16    17    ar
28    16    29    1
29    17    18    1
30    19    20    ar
31    19    30    1
32    20    31    1
@<TRIPOS>SUBSTRUCTURE
1   ZINC000019860498 1     RESIDUE    1   A     ZIN   1
