@<TRIPOS>MOLECULE
ZINC000653757103
65    70    1     0     0
SMALL
USER_CHARGES
@<TRIPOS>ATOM
1      N1     -1.8827   -0.5601   -3.2760 N.am     1 ZINC000653757103   -0.8500
2      C2     -1.2465   -1.2290   -2.2940 C.2      1 ZINC000653757103    0.5700
3      O3     -0.1400   -1.6934   -2.4925 O.2      1 ZINC000653757103   -0.5200
4      C4     -1.8907   -1.3974   -0.9811 C.ar     1 ZINC000653757103   -0.2100
5      C5     -3.1132   -0.7657   -0.7041 C.ar     1 ZINC000653757103    0.1700
6      N6     -3.7080   -0.8979    0.4538 N.ar     1 ZINC000653757103   -0.4700
7      C7     -3.1878   -1.6412    1.4406 C.ar     1 ZINC000653757103    0.1500
8      C8     -3.8549   -1.7611    2.6718 C.ar     1 ZINC000653757103   -0.0900
9      C9     -3.3202   -2.5169    3.6672 C.ar     1 ZINC000653757103   -0.0800
10     C10    -2.1012   -3.1873    3.4872 C.ar     1 ZINC000653757103   -0.0300
11     C11    -1.5392   -4.0051    4.5894 C.ar     1 ZINC000653757103   -0.1100
12     C12    -0.2692   -4.5894    4.4598 C.ar     1 ZINC000653757103    0.1500
13     N13     0.2517   -5.3158    5.4159 N.ar     1 ZINC000653757103   -0.4700
14     C14    -0.3989   -5.5377    6.5630 C.ar     1 ZINC000653757103    0.1300
15     C15     0.1773   -6.3199    7.5791 C.ar     1 ZINC000653757103   -0.0900
16     C16    -0.5036   -6.5311    8.7384 C.ar     1 ZINC000653757103   -0.1000
17     C17    -1.7694   -5.9841    8.9395 C.ar     1 ZINC000653757103   -0.1100
18     C18    -2.3606   -5.2212    7.9795 C.ar     1 ZINC000653757103   -0.1000
19     C19    -1.6866   -4.9817    6.7699 C.ar     1 ZINC000653757103   -0.1000
20     C20    -2.2622   -4.1936    5.7585 C.ar     1 ZINC000653757103   -0.0400
21     C21    -1.4202   -3.0898    2.2854 C.ar     1 ZINC000653757103   -0.0700
22     C22    -1.9574   -2.3151    1.2509 C.ar     1 ZINC000653757103   -0.1100
23     C23    -1.2922   -2.1960    0.0057 C.ar     1 ZINC000653757103    0.2800
24     N24    -0.0962   -2.8379   -0.2267 N.pl3    1 ZINC000653757103   -0.6900
25     C25    -0.0889   -4.1400   -0.7406 C.ar     1 ZINC000653757103    0.2200
26     C26    -1.2798   -4.7400   -1.1285 C.ar     1 ZINC000653757103   -0.1400
27     C27    -1.2726   -6.0243   -1.6354 C.ar     1 ZINC000653757103   -0.1000
28     C28    -0.0747   -6.7162   -1.7569 C.ar     1 ZINC000653757103    0.0900
29     N29    -0.0675   -8.0178   -2.2701 N.3      1 ZINC000653757103   -0.5000
30     C30    -0.8130   -8.9331   -1.3949 C.3      1 ZINC000653757103    0.0600
31     C31    -0.7145  -10.3569   -1.9478 C.3      1 ZINC000653757103    0.0600
32     N32    -1.2511  -10.3866   -3.3156 N.3      1 ZINC000653757103   -0.6900
33     C33    -0.5056   -9.4713   -4.1908 C.3      1 ZINC000653757103    0.0600
34     C34    -0.6041   -8.0476   -3.6379 C.3      1 ZINC000653757103    0.0600
35     C35     1.1165   -6.1159   -1.3693 C.ar     1 ZINC000653757103   -0.1100
36     C36     2.4166   -6.8663   -1.5021 C.3      1 ZINC000653757103    0.5200
37     F37     3.4680   -6.0611   -1.0511 F        1 ZINC000653757103   -0.1800
38     F38     2.3613   -8.0344   -0.7341 F        1 ZINC000653757103   -0.1700
39     F39     2.6274   -7.2001   -2.8442 F        1 ZINC000653757103   -0.1700
40     C40     1.1101   -4.8298   -0.8679 C.ar     1 ZINC000653757103   -0.1300
41     H41    -1.4582   -0.4491   -4.1411 H        1 ZINC000653757103    0.4100
42     H42    -2.7668   -0.1932   -3.1189 H        1 ZINC000653757103    0.4000
43     H43    -3.5744   -0.1548   -1.4660 H        1 ZINC000653757103    0.1700
44     H44    -4.7943   -1.2514    2.8276 H        1 ZINC000653757103    0.1500
45     H45    -3.8409   -2.6021    4.6096 H        1 ZINC000653757103    0.1400
46     H46     0.2912   -4.4362    3.5493 H        1 ZINC000653757103    0.1600
47     H47     1.1572   -6.7521    7.4400 H        1 ZINC000653757103    0.1400
48     H48    -0.0556   -7.1329    9.5153 H        1 ZINC000653757103    0.1300
49     H49    -2.2881   -6.1680    9.8688 H        1 ZINC000653757103    0.1300
50     H50    -3.3421   -4.8027    8.1464 H        1 ZINC000653757103    0.1300
51     H51    -3.2392   -3.7514    5.8859 H        1 ZINC000653757103    0.1400
52     H52    -0.4821   -3.6069    2.1476 H        1 ZINC000653757103    0.1400
53     H53     0.7412   -2.3878   -0.0342 H        1 ZINC000653757103    0.4200
54     H54    -2.2115   -4.2022   -1.0334 H        1 ZINC000653757103    0.1200
55     H55    -2.1987   -6.4910   -1.9371 H        1 ZINC000653757103    0.1300
56     H56    -0.3890   -8.9027   -0.3912 H        1 ZINC000653757103    0.0800
57     H57    -1.8591   -8.6291   -1.3575 H        1 ZINC000653757103    0.0500
58     H58     0.3292  -10.6709   -1.9598 H        1 ZINC000653757103    0.0400
59     H59    -1.2908  -11.0330   -1.3163 H        1 ZINC000653757103    0.0800
60     H60    -1.2460  -11.3253   -3.6857 H        1 ZINC000653757103    0.3500
61     H61     0.5405   -9.7753   -4.2282 H        1 ZINC000653757103    0.0400
62     H62    -0.9296   -9.5018   -5.1945 H        1 ZINC000653757103    0.0800
63     H63    -1.6478   -7.7336   -3.6259 H        1 ZINC000653757103    0.0500
64     H64    -0.0278   -7.3715   -4.2694 H        1 ZINC000653757103    0.0800
65     H65     2.0362   -4.3630   -0.5665 H        1 ZINC000653757103    0.1400
@<TRIPOS>BOND
1     1     2     am
2     1     41    1
3     1     42    1
4     2     3     2
5     2     4     1
6     4     23    ar
7     4     5     ar
8     5     6     ar
9     5     43    1
10    6     7     ar
11    7     22    ar
12    7     8     ar
13    8     9     ar
14    8     44    1
15    9     10    ar
16    9     45    1
17    10    11    1
18    10    21    ar
19    11    20    ar
20    11    12    ar
21    12    13    ar
22    12    46    1
23    13    14    ar
24    14    19    ar
25    14    15    ar
26    15    16    ar
27    15    47    1
28    16    17    ar
29    16    48    1
30    17    18    ar
31    17    49    1
32    18    19    ar
33    18    50    1
34    19    20    ar
35    20    51    1
36    21    22    ar
37    21    52    1
38    22    23    ar
39    23    24    1
40    24    25    1
41    24    53    1
42    25    40    ar
43    25    26    ar
44    26    27    ar
45    26    54    1
46    27    28    ar
47    27    55    1
48    28    29    1
49    28    35    ar
50    29    34    1
51    29    30    1
52    30    31    1
53    30    56    1
54    30    57    1
55    31    32    1
56    31    58    1
57    31    59    1
58    32    33    1
59    32    60    1
60    33    34    1
61    33    61    1
62    33    62    1
63    34    63    1
64    34    64    1
65    35    36    1
66    35    40    ar
67    36    37    1
68    36    38    1
69    36    39    1
70    40    65    1
@<TRIPOS>SUBSTRUCTURE
1   ZINC000653757103 1     RESIDUE    1   A     ZIN   1
