@<TRIPOS>MOLECULE
ZINC000001616841
32    36    1     0     0
SMALL
USER_CHARGES
@<TRIPOS>ATOM
1      O1      0.0021   -0.0041    0.0020 O.2      1 ZINC000001616841   -0.3600
2      C2     -0.0144    1.2106    0.0087 C.2      1 ZINC000001616841    0.4500
3      C3     -1.1982    2.1013    0.0313 C.ar     1 ZINC000001616841   -0.1700
4      C4     -2.5659    1.8715    0.0503 C.ar     1 ZINC000001616841   -0.0100
5      C5     -3.4417    2.9454    0.0688 C.ar     1 ZINC000001616841   -0.0800
6      C6     -2.9540    4.2382    0.0684 C.ar     1 ZINC000001616841   -0.0600
7      C7     -1.5898    4.4781    0.0495 C.ar     1 ZINC000001616841   -0.0600
8      C8     -0.6969    3.4125    0.0308 C.ar     1 ZINC000001616841    0.0500
9      N9      0.6893    3.3883    0.0106 N.ar     1 ZINC000001616841   -0.2400
10     C10     1.1481    2.1359    0.0026 C.ar     1 ZINC000001616841    0.0100
11     C11     2.5209    1.8721   -0.0178 C.ar     1 ZINC000001616841    0.2000
12     C12     3.4183    2.9633   -0.0297 C.ar     1 ZINC000001616841    0.0100
13     C13     2.8986    4.2518   -0.0209 C.ar     1 ZINC000001616841   -0.0500
14     C14     1.5276    4.4245    0.0038 C.ar     1 ZINC000001616841    0.1000
15     C15     4.7724    2.3907   -0.0504 C.ar     1 ZINC000001616841   -0.1300
16     C16     4.6111    0.9959   -0.0495 C.ar     1 ZINC000001616841    0.1600
17     C17     5.7379    0.1808   -0.0671 C.ar     1 ZINC000001616841   -0.1300
18     C18     6.9970    0.7423   -0.0851 C.ar     1 ZINC000001616841   -0.0400
19     C19     7.1549    2.1197   -0.0859 C.ar     1 ZINC000001616841   -0.1300
20     C20     6.0511    2.9446   -0.0691 C.ar     1 ZINC000001616841   -0.0400
21     N21     3.2555    0.7107   -0.0298 N.pl3    1 ZINC000001616841   -0.5800
22     H22    -2.9465    0.8607    0.0503 H        1 ZINC000001616841    0.1600
23     H23    -4.5075    2.7715    0.0833 H        1 ZINC000001616841    0.1600
24     H24    -3.6430    5.0697    0.0825 H        1 ZINC000001616841    0.1600
25     H25    -1.2199    5.4927    0.0490 H        1 ZINC000001616841    0.1600
26     H26     3.5575    5.1075   -0.0295 H        1 ZINC000001616841    0.2000
27     H27     1.1244    5.4264    0.0103 H        1 ZINC000001616841    0.2100
28     H28     5.6265   -0.8934   -0.0663 H        1 ZINC000001616841    0.1400
29     H29     7.8678    0.1036   -0.0983 H        1 ZINC000001616841    0.1500
30     H30     8.1463    2.5476   -0.1001 H        1 ZINC000001616841    0.1500
31     H31     6.1766    4.0172   -0.0697 H        1 ZINC000001616841    0.1500
32     H32     2.8780   -0.1828   -0.0254 H        1 ZINC000001616841    0.4400
@<TRIPOS>BOND
1     1     2     2
2     2     10    1
3     2     3     1
4     3     8     ar
5     3     4     ar
6     4     5     ar
7     4     22    1
8     5     6     ar
9     5     23    1
10    6     7     ar
11    6     24    1
12    7     8     ar
13    7     25    1
14    8     9     1
15    9     14    ar
16    9     10    ar
17    10    11    ar
18    11    21    1
19    11    12    ar
20    12    13    ar
21    12    15    1
22    13    14    ar
23    13    26    1
24    14    27    1
25    15    20    ar
26    15    16    ar
27    16    17    ar
28    16    21    1
29    17    18    ar
30    17    28    1
31    18    19    ar
32    18    29    1
33    19    20    ar
34    19    30    1
35    20    31    1
36    21    32    1
@<TRIPOS>SUBSTRUCTURE
1   ZINC000001616841 1     RESIDUE    1   A     ZIN   1
