@<TRIPOS>MOLECULE
ZINC000058592259
64    65    1     0     0
SMALL
USER_CHARGES
@<TRIPOS>ATOM
1      C1     -3.5814    4.7154    0.3531 C.3      1 ZINC000058592259    0.0200
2      O2     -2.6169    3.6697    0.2176 O.3      1 ZINC000058592259   -0.3000
3      C3     -3.0907    2.3961    0.1626 C.ar     1 ZINC000058592259    0.1100
4      C4     -4.4537    2.1590    0.2317 C.ar     1 ZINC000058592259   -0.1800
5      C5     -4.9338    0.8634    0.1752 C.ar     1 ZINC000058592259   -0.1100
6      C6     -4.0565   -0.1972    0.0503 C.ar     1 ZINC000058592259   -0.0900
7      C7     -4.5851   -1.6071   -0.0103 C.3      1 ZINC000058592259    0.1000
8      C8     -4.2524   -2.2001   -1.3159 C.1      1 ZINC000058592259    0.2100
9      N9     -3.9958   -2.6578   -2.3234 N.1      1 ZINC000058592259   -0.4100
10     C10    -3.9482   -2.4389    1.1048 C.3      1 ZINC000058592259   -0.1100
11     C11    -4.4849   -3.8704    1.0432 C.3      1 ZINC000058592259   -0.1600
12     C12    -3.8480   -4.7022    2.1583 C.3      1 ZINC000058592259   -0.0100
13     N13    -4.3633   -6.0766    2.0992 N.4      1 ZINC000058592259   -0.3900
14     H14    -4.2082   -6.4546    1.1767 H        1 ZINC000058592259    0.4200
15     C15    -5.8030   -6.0727    2.3911 C.3      1 ZINC000058592259   -0.0600
16     C16    -3.6647   -6.9045    3.0914 C.3      1 ZINC000058592259   -0.0100
17     C17    -4.1112   -8.3607    2.9458 C.3      1 ZINC000058592259   -0.0600
18     C18    -3.3945   -9.2100    3.9636 C.ar     1 ZINC000058592259   -0.2600
19     C19    -2.1785   -9.7871    3.6476 C.ar     1 ZINC000058592259   -0.0100
20     C20    -1.5189  -10.5662    4.5793 C.ar     1 ZINC000058592259   -0.2200
21     I21     0.3239  -11.4396    4.0997 I        1 ZINC000058592259   -0.0700
22     C22    -2.0782  -10.7688    5.8330 C.ar     1 ZINC000058592259    0.3100
23     O23    -1.4314  -11.5342    6.7514 O.3      1 ZINC000058592259   -0.6400
24     C24    -3.2987  -10.1884    6.1476 C.ar     1 ZINC000058592259   -0.2200
25     I25    -4.1473  -10.4914    8.0389 I        1 ZINC000058592259   -0.0700
26     C26    -3.9515   -9.4060    5.2138 C.ar     1 ZINC000058592259   -0.0100
27     C27    -6.1043   -1.5904    0.1700 C.3      1 ZINC000058592259   -0.0800
28     C28    -6.4530   -0.9125    1.4966 C.3      1 ZINC000058592259   -0.1800
29     C29    -6.7462   -0.8158   -0.9827 C.3      1 ZINC000058592259   -0.1800
30     C30    -2.6946    0.0327   -0.0197 C.ar     1 ZINC000058592259   -0.1600
31     C31    -2.2074    1.3284    0.0310 C.ar     1 ZINC000058592259    0.1000
32     O32    -0.8684    1.5562   -0.0376 O.3      1 ZINC000058592259   -0.3000
33     C33    -0.0213    0.4120   -0.1615 C.3      1 ZINC000058592259    0.0200
34     H34    -3.0714    5.6782    0.3845 H        1 ZINC000058592259    0.1000
35     H35    -4.2634    4.6930   -0.4969 H        1 ZINC000058592259    0.0600
36     H36    -4.1451    4.5725    1.2750 H        1 ZINC000058592259    0.0600
37     H37    -5.1414    2.9859    0.3300 H        1 ZINC000058592259    0.1400
38     H38    -5.9968    0.6798    0.2292 H        1 ZINC000058592259    0.1600
39     H39    -2.8659   -2.4508    0.9763 H        1 ZINC000058592259    0.0900
40     H40    -4.1945   -1.9998    2.0715 H        1 ZINC000058592259    0.1000
41     H41    -5.5672   -3.8585    1.1717 H        1 ZINC000058592259    0.1000
42     H42    -4.2386   -4.3095    0.0765 H        1 ZINC000058592259    0.0900
43     H43    -2.7657   -4.7141    2.0298 H        1 ZINC000058592259    0.1300
44     H44    -4.0943   -4.2631    3.1251 H        1 ZINC000058592259    0.1300
45     H45    -6.3214   -5.4584    1.6549 H        1 ZINC000058592259    0.1200
46     H46    -6.1854   -7.0925    2.3473 H        1 ZINC000058592259    0.1300
47     H47    -5.9706   -5.6644    3.3877 H        1 ZINC000058592259    0.1200
48     H48    -2.5891   -6.8363    2.9290 H        1 ZINC000058592259    0.1300
49     H49    -3.9040   -6.5497    4.0939 H        1 ZINC000058592259    0.1300
50     H50    -5.1868   -8.4289    3.1082 H        1 ZINC000058592259    0.0800
51     H51    -3.8719   -8.7155    1.9433 H        1 ZINC000058592259    0.0800
52     H52    -1.7439   -9.6293    2.6716 H        1 ZINC000058592259    0.1000
53     H53    -4.9014   -8.9541    5.4581 H        1 ZINC000058592259    0.1000
54     H54    -6.4809   -2.6133    0.1747 H        1 ZINC000058592259    0.0800
55     H55    -5.7957   -0.0568    1.6511 H        1 ZINC000058592259    0.0900
56     H56    -7.4890   -0.5749    1.4709 H        1 ZINC000058592259    0.0700
57     H57    -6.3225   -1.6229    2.3130 H        1 ZINC000058592259    0.0600
58     H58    -6.1377    0.0576   -1.2170 H        1 ZINC000058592259    0.0800
59     H59    -6.8120   -1.4588   -1.8604 H        1 ZINC000058592259    0.0600
60     H60    -7.7464   -0.4944   -0.6920 H        1 ZINC000058592259    0.0700
61     H61    -2.0111   -0.7978   -0.1173 H        1 ZINC000058592259    0.1300
62     H62    -0.1636   -0.2404    0.7000 H        1 ZINC000058592259    0.0600
63     H63    -0.2733   -0.1297   -1.0731 H        1 ZINC000058592259    0.0500
64     H64     1.0193    0.7335   -0.2058 H        1 ZINC000058592259    0.1100
@<TRIPOS>BOND
1     1     2     1
2     1     34    1
3     1     35    1
4     1     36    1
5     2     3     1
6     3     31    ar
7     3     4     ar
8     4     5     ar
9     4     37    1
10    5     6     ar
11    5     38    1
12    6     7     1
13    6     30    ar
14    7     8     1
15    7     10    1
16    7     27    1
17    8     9     3
18    10    11    1
19    10    39    1
20    10    40    1
21    11    12    1
22    11    41    1
23    11    42    1
24    12    13    1
25    12    43    1
26    12    44    1
27    13    14    1
28    13    15    1
29    13    16    1
30    15    45    1
31    15    46    1
32    15    47    1
33    16    17    1
34    16    48    1
35    16    49    1
36    17    18    1
37    17    50    1
38    17    51    1
39    18    26    ar
40    18    19    ar
41    19    20    ar
42    19    52    1
43    20    21    1
44    20    22    ar
45    22    23    1
46    22    24    ar
47    24    25    1
48    24    26    ar
49    26    53    1
50    27    28    1
51    27    29    1
52    27    54    1
53    28    55    1
54    28    56    1
55    28    57    1
56    29    58    1
57    29    59    1
58    29    60    1
59    30    31    ar
60    30    61    1
61    31    32    1
62    32    33    1
63    33    62    1
64    33    63    1
65    33    64    1
@<TRIPOS>SUBSTRUCTURE
1   ZINC000058592259 1     RESIDUE    1   A     ZIN   1
