@<TRIPOS>MOLECULE
ZINC000096283860
  43   44    0    0    0
SMALL
USER_CHARGES
NO_NAME
@<TRIPOS>ATOM
    1 C1       -0.4938     1.1990     0.0163 C.3    1 <0>       0.0800
    2 N2        0.1458    -0.1134     0.1371 N.am   1 <0>      -0.7200
    3 C3        0.5251    -0.7826    -0.9696 C.2    1 <0>       0.5800
    4 O4        0.3364    -0.2969    -2.0687 O.2    1 <0>      -0.5500
    5 C5        1.1677    -2.1012    -0.8483 C.ar   1 <0>      -0.3500
    6 C6        1.2722    -2.7385     0.3926 C.ar   1 <0>       0.2600
    7 N7        1.8558    -3.9210     0.4598 N.ar   1 <0>      -0.6000
    8 C8        2.3413    -4.5093    -0.6266 C.ar   1 <0>       0.6200
    9 N9        2.9418    -5.7452    -0.5055 N.pl3  1 <0>      -0.7000
   10 C10       3.0362    -6.3883     0.8074 C.3    1 <0>       0.1100
   11 C11       3.7405    -7.7390     0.6643 C.3    1 <0>      -0.0200
   12 N12       3.8351    -8.3838     1.9808 N.4    1 <0>      -0.6300
   13 H13       4.2996    -9.2745     1.8864 H      1 <0>       0.4500
   14 H14       4.3626    -7.7941     2.6070 H      1 <0>       0.4400
   15 H15       2.9082    -8.5257     2.3532 H      1 <0>       0.4400
   16 N16       2.2666    -3.9465    -1.8237 N.ar   1 <0>      -0.6100
   17 C17       1.6906    -2.7607    -1.9822 C.ar   1 <0>       0.5200
   18 N18       1.6148    -2.1779    -3.2308 N.pl3  1 <0>      -0.6200
   19 C19       2.0211    -2.8925    -4.3617 C.ar   1 <0>       0.1500
   20 C20       1.8229    -4.2656    -4.4255 C.ar   1 <0>      -0.0800
   21 C21       2.2254    -4.9687    -5.5442 C.ar   1 <0>      -0.1000
   22 C22       2.8256    -4.3071    -6.5995 C.ar   1 <0>      -0.0800
   23 C23       3.0249    -2.9398    -6.5390 C.ar   1 <0>      -0.1600
   24 C24       3.6795    -2.2228    -7.6916 C.3    1 <0>       0.5100
   25 F25       3.9929    -3.1443    -8.6965 F      1 <0>      -0.1700
   26 F26       2.8022    -1.2589    -8.1999 F      1 <0>      -0.1700
   27 F27       4.8510    -1.5996    -7.2484 F      1 <0>      -0.1700
   28 C28       2.6188    -2.2299    -5.4264 C.ar   1 <0>      -0.0900
   29 H29       0.1831     1.8880    -0.4889 H      1 <0>       0.0700
   30 H30      -1.4130     1.1035    -0.5616 H      1 <0>       0.0700
   31 H31      -0.7273     1.5822     1.0097 H      1 <0>       0.0800
   32 H32       0.2963    -0.5008     1.0135 H      1 <0>       0.4000
   33 H33       0.8813    -2.2695     1.2835 H      1 <0>       0.1800
   34 H34       3.3016    -6.1885    -1.2897 H      1 <0>       0.4200
   35 H35       3.6060    -5.7513     1.4839 H      1 <0>       0.0900
   36 H36       2.0348    -6.5416     1.2097 H      1 <0>       0.0900
   37 H37       3.1707    -8.3760    -0.0122 H      1 <0>       0.1400
   38 H38       4.7419    -7.5857     0.2620 H      1 <0>       0.1400
   39 H39       1.2797    -1.2724    -3.3239 H      1 <0>       0.4400
   40 H40       1.3548    -4.7832    -3.6012 H      1 <0>       0.1400
   41 H41       2.0716    -6.0365    -5.5945 H      1 <0>       0.1400
   42 H42       3.1398    -4.8592    -7.4729 H      1 <0>       0.1400
   43 H43       2.7744    -1.1622    -5.3799 H      1 <0>       0.1400
@<TRIPOS>BOND
   1    1    2 1
   2    1   29 1
   3    1   30 1
   4    1   31 1
   5    2    3 am
   6    2   32 1
   7    3    4 2
   8    3    5 1
   9    5   17 ar
  10    5    6 ar
  11    6    7 ar
  12    6   33 1
  13    7    8 ar
  14    8    9 1
  15    8   16 ar
  16    9   10 1
  17    9   34 1
  18   10   11 1
  19   10   35 1
  20   10   36 1
  21   11   12 1
  22   11   37 1
  23   11   38 1
  24   12   13 1
  25   12   14 1
  26   12   15 1
  27   16   17 ar
  28   17   18 1
  29   18   19 1
  30   18   39 1
  31   19   28 ar
  32   19   20 ar
  33   20   21 ar
  34   20   40 1
  35   21   22 ar
  36   21   41 1
  37   22   23 ar
  38   22   42 1
  39   23   24 1
  40   23   28 ar
  41   24   25 1
  42   24   26 1
  43   24   27 1
  44   28   43 1
