@<TRIPOS>MOLECULE
ZINC000219057107
63    66    1     0     0
SMALL
USER_CHARGES
@<TRIPOS>ATOM
1      C1     -0.0187    1.5258    0.0104 C.3      1 ZINC000219057107   -0.1500
2      C2      0.0021   -0.0041    0.0020 C.3      1 ZINC000219057107   -0.1200
3      C3      0.7421   -0.5109    1.2415 C.3      1 ZINC000219057107    0.0600
4      O4      0.7614   -1.9398    1.2337 O.3      1 ZINC000219057107   -0.3100
5      C5      1.3843   -2.5532    2.2717 C.ar     1 ZINC000219057107    0.1500
6      C6      1.9608   -1.7921    3.2816 C.ar     1 ZINC000219057107   -0.2300
7      C7      2.5934   -2.4109    4.3369 C.ar     1 ZINC000219057107   -0.0100
8      C8      2.6551   -3.8056    4.3913 C.ar     1 ZINC000219057107   -0.1200
9      C9      3.3317   -4.4728    5.5208 C.2      1 ZINC000219057107    0.5600
10     O10     3.3846   -5.6867    5.5666 O.2      1 ZINC000219057107   -0.6300
11     N11     3.8910   -3.7365    6.5014 N.pl3    1 ZINC000219057107   -1.1100
12     S12     4.6501   -4.4851    7.7686 S.o2     1 ZINC000219057107    2.6400
13     O13     3.6394   -5.1751    8.4908 O.2      1 ZINC000219057107   -1.0200
14     O14     5.7951   -5.1289    7.2267 O.2      1 ZINC000219057107   -1.0200
15     C15     5.2502   -3.2199    8.8381 C.ar     1 ZINC000219057107   -0.6200
16     C16     6.5159   -2.6975    8.6487 C.ar     1 ZINC000219057107   -0.0200
17     C17     6.9867   -1.7050    9.4878 C.ar     1 ZINC000219057107   -0.1500
18     C18     6.1916   -1.2344   10.5160 C.ar     1 ZINC000219057107   -0.0900
19     C19     4.9254   -1.7562   10.7048 C.ar     1 ZINC000219057107   -0.1500
20     C20     4.4530   -2.7457    9.8631 C.ar     1 ZINC000219057107   -0.0200
21     C21     2.0742   -4.5673    3.3738 C.ar     1 ZINC000219057107   -0.0200
22     C22     1.4390   -3.9413    2.3249 C.ar     1 ZINC000219057107   -0.1700
23     C23     0.8118   -4.7616    1.2273 C.3      1 ZINC000219057107    0.1800
24     N24     1.7094   -4.7966    0.0700 N.am     1 ZINC000219057107   -0.7100
25     C25     1.3542   -5.4768   -1.0380 C.2      1 ZINC000219057107    0.5500
26     O26     0.2891   -6.0612   -1.0770 O.2      1 ZINC000219057107   -0.5400
27     C27     2.2601   -5.5121   -2.2059 C.ar     1 ZINC000219057107   -0.1100
28     C28     3.4863   -4.8457   -2.1594 C.ar     1 ZINC000219057107   -0.1000
29     C29     4.3298   -4.8795   -3.2478 C.ar     1 ZINC000219057107   -0.0800
30     C30     3.9593   -5.5787   -4.3962 C.ar     1 ZINC000219057107   -0.0300
31     C31     4.8680   -5.6142   -5.5679 C.ar     1 ZINC000219057107    0.3600
32     N32     6.0309   -4.9803   -5.5044 N.ar     1 ZINC000219057107   -0.5100
33     C33     6.8639   -4.9925   -6.5304 C.ar     1 ZINC000219057107    0.1500
34     C34     6.5087   -5.6789   -7.6823 C.ar     1 ZINC000219057107   -0.2400
35     C35     5.2848   -6.3310   -7.7148 C.ar     1 ZINC000219057107    0.1500
36     N36     4.5006   -6.2835   -6.6519 N.ar     1 ZINC000219057107   -0.5100
37     C37     2.7350   -6.2450   -4.4435 C.ar     1 ZINC000219057107   -0.0800
38     C38     1.8925   -6.2167   -3.3541 C.ar     1 ZINC000219057107   -0.0700
39     H39     1.0039    1.9031    0.0027 H        1 ZINC000219057107    0.0600
40     H40    -0.5459    1.8868   -0.8726 H        1 ZINC000219057107    0.0600
41     H41    -0.5289    1.8773    0.9072 H        1 ZINC000219057107    0.0600
42     H42    -1.0205   -0.3814    0.0098 H        1 ZINC000219057107    0.0700
43     H43     0.5123   -0.3556   -0.8948 H        1 ZINC000219057107    0.0700
44     H44     1.7647   -0.1336    1.2338 H        1 ZINC000219057107    0.0600
45     H45     0.2319   -0.1594    2.1383 H        1 ZINC000219057107    0.0600
46     H46     1.9129   -0.7141    3.2386 H        1 ZINC000219057107    0.1300
47     H47     3.0414   -1.8188    5.1212 H        1 ZINC000219057107    0.1500
48     H48     7.1372   -3.0652    7.8454 H        1 ZINC000219057107    0.1400
49     H49     7.9759   -1.2974    9.3402 H        1 ZINC000219057107    0.1200
50     H50     6.5596   -0.4595   11.1720 H        1 ZINC000219057107    0.1200
51     H51     4.3043   -1.3888   11.5084 H        1 ZINC000219057107    0.1200
52     H52     3.4638   -3.1533   10.0106 H        1 ZINC000219057107    0.1400
53     H53     2.1202   -5.6457    3.4121 H        1 ZINC000219057107    0.1400
54     H54     0.6406   -5.7769    1.5851 H        1 ZINC000219057107    0.0800
55     H55    -0.1385   -4.3137    0.9367 H        1 ZINC000219057107    0.0800
56     H56     2.5594   -4.3303    0.1012 H        1 ZINC000219057107    0.4000
57     H57     3.7731   -4.3036   -1.2704 H        1 ZINC000219057107    0.1300
58     H58     5.2782   -4.3642   -3.2120 H        1 ZINC000219057107    0.1400
59     H59     7.8096   -4.4740   -6.4728 H        1 ZINC000219057107    0.1700
60     H60     7.1704   -5.7047   -8.5354 H        1 ZINC000219057107    0.1500
61     H61     4.9783   -6.8744   -8.5963 H        1 ZINC000219057107    0.1700
62     H62     2.4489   -6.7862   -5.3332 H        1 ZINC000219057107    0.1400
63     H63     0.9445   -6.7328   -3.3908 H        1 ZINC000219057107    0.1400
@<TRIPOS>BOND
1     1     2     1
2     1     39    1
3     1     40    1
4     1     41    1
5     2     3     1
6     2     42    1
7     2     43    1
8     3     4     1
9     3     44    1
10    3     45    1
11    4     5     1
12    5     22    ar
13    5     6     ar
14    6     7     ar
15    6     46    1
16    7     8     ar
17    7     47    1
18    8     9     1
19    8     21    ar
20    9     10    2
21    9     11    1
22    11    12    1
23    12    13    2
24    12    14    2
25    12    15    1
26    15    20    ar
27    15    16    ar
28    16    17    ar
29    16    48    1
30    17    18    ar
31    17    49    1
32    18    19    ar
33    18    50    1
34    19    20    ar
35    19    51    1
36    20    52    1
37    21    22    ar
38    21    53    1
39    22    23    1
40    23    24    1
41    23    54    1
42    23    55    1
43    24    25    am
44    24    56    1
45    25    26    2
46    25    27    1
47    27    38    ar
48    27    28    ar
49    28    29    ar
50    28    57    1
51    29    30    ar
52    29    58    1
53    30    31    1
54    30    37    ar
55    31    36    ar
56    31    32    ar
57    32    33    ar
58    33    34    ar
59    33    59    1
60    34    35    ar
61    34    60    1
62    35    36    ar
63    35    61    1
64    37    38    ar
65    37    62    1
66    38    63    1
@<TRIPOS>SUBSTRUCTURE
1   ZINC000219057107 1     RESIDUE    1   A     ZIN   1
