@<TRIPOS>MOLECULE
ZINC000000298393
24    25    1     0     0
SMALL
USER_CHARGES
@<TRIPOS>ATOM
1      C1     -0.0187    1.5258    0.0104 C.3      1 ZINC000000298393   -0.1500
2      C2      0.0021   -0.0041    0.0020 C.3      1 ZINC000000298393    0.0500
3      O3      0.6709   -0.4649   -1.1737 O.3      1 ZINC000000298393   -0.3100
4      C4      0.7768   -1.8105   -1.3362 C.ar     1 ZINC000000298393    0.1500
5      C5      0.2411   -2.6723   -0.3834 C.ar     1 ZINC000000298393   -0.1900
6      C6      0.3397   -4.0214   -0.5322 C.ar     1 ZINC000000298393   -0.0200
7      C7      0.9875   -4.5751   -1.6571 C.ar     1 ZINC000000298393    0.0400
8      N8      1.1785   -5.8722   -1.9686 N.2      1 ZINC000000298393   -0.4600
9      C9      1.8005   -6.1469   -3.0532 C.2      1 ZINC000000298393    0.1200
10     C10     2.0957   -7.5403   -3.5456 C.3      1 ZINC000000298393   -0.0800
11     S11     2.2619   -4.6697   -3.8877 S.3      1 ZINC000000298393    0.0500
12     C12     1.5237   -3.7046   -2.6118 C.ar     1 ZINC000000298393   -0.1300
13     C13     1.4112   -2.3252   -2.4498 C.ar     1 ZINC000000298393   -0.1200
14     H14     1.0039    1.9031    0.0027 H        1 ZINC000000298393    0.0700
15     H15    -0.5459    1.8868   -0.8726 H        1 ZINC000000298393    0.0700
16     H16    -0.5289    1.8773    0.9072 H        1 ZINC000000298393    0.0800
17     H17     0.5293   -0.3651    0.8851 H        1 ZINC000000298393    0.0700
18     H18    -1.0205   -0.3814    0.0098 H        1 ZINC000000298393    0.0700
19     H19    -0.2581   -2.2657    0.4838 H        1 ZINC000000298393    0.1400
20     H20    -0.0815   -4.6744    0.2178 H        1 ZINC000000298393    0.1400
21     H21     1.2742   -7.8855   -4.1734 H        1 ZINC000000298393    0.0900
22     H22     3.0182   -7.5327   -4.1260 H        1 ZINC000000298393    0.0900
23     H23     2.2081   -8.2106   -2.6934 H        1 ZINC000000298393    0.0900
24     H24     1.8229   -1.6587   -3.1932 H        1 ZINC000000298393    0.1400
@<TRIPOS>BOND
1     1     2     1
2     1     14    1
3     1     15    1
4     1     16    1
5     2     3     1
6     2     17    1
7     2     18    1
8     3     4     1
9     4     13    ar
10    4     5     ar
11    5     6     ar
12    5     19    1
13    6     7     ar
14    6     20    1
15    7     12    ar
16    7     8     1
17    8     9     2
18    9     10    1
19    9     11    1
20    10    21    1
21    10    22    1
22    10    23    1
23    11    12    1
24    12    13    ar
25    13    24    1
@<TRIPOS>SUBSTRUCTURE
1   ZINC000000298393 1     RESIDUE    1   A     ZIN   1
