@<TRIPOS>MOLECULE
ZINC000026005586
43    46    1     0     0
SMALL
USER_CHARGES
@<TRIPOS>ATOM
1      O1      1.1819    5.7798    0.2582 O.2      1 ZINC000026005586   -0.5100
2      C2      2.2439    5.2231    0.0755 C.2      1 ZINC000026005586    0.5300
3      C3      3.5077    6.0341   -0.0515 C.3      1 ZINC000026005586   -0.1600
4      C4      3.1754    7.5212    0.0863 C.3      1 ZINC000026005586    0.1100
5      N5      4.4039    8.3096   -0.0371 N.am     1 ZINC000026005586   -0.5400
6      C6      5.1305    8.6064    1.0711 C.2      1 ZINC000026005586    0.3800
7      N7      6.2292    9.2982    1.0086 N.2      1 ZINC000026005586   -0.5000
8      C8      6.7024    9.7696   -0.1670 C.2      1 ZINC000026005586    0.0700
9      C9      6.0079    9.5089   -1.3369 C.2      1 ZINC000026005586   -0.2100
10     C10     6.6481   10.0869   -2.5196 C.2      1 ZINC000026005586   -0.0600
11     C11     7.7669   10.7488   -2.2547 C.2      1 ZINC000026005586   -0.2200
12     C12     8.3677   11.3183   -3.5364 C.3      1 ZINC000026005586   -0.0400
13     C13     7.2166   11.2838   -4.5613 C.3      1 ZINC000026005586   -0.1200
14     C14     6.3543   10.1269   -4.0191 C.3      1 ZINC000026005586   -0.0600
15     S15     8.1327   10.7201   -0.5303 S.3      1 ZINC000026005586    0.2300
16     C16     4.8048    8.7416   -1.2495 C.2      1 ZINC000026005586    0.5600
17     O17     4.1559    8.4841   -2.2487 O.2      1 ZINC000026005586   -0.5100
18     N18     2.2937    3.8792   -0.0140 N.am     1 ZINC000026005586   -0.6700
19     C19     1.1099    3.1332   -0.0068 C.ar     1 ZINC000026005586    0.2200
20     C20    -0.0339    3.6375   -0.6112 C.ar     1 ZINC000026005586   -0.1300
21     C21    -1.2010    2.8987   -0.6020 C.ar     1 ZINC000026005586   -0.0400
22     C22    -1.2295    1.6559    0.0033 C.ar     1 ZINC000026005586   -0.1300
23     C23    -0.0934    1.1533    0.6111 C.ar     1 ZINC000026005586   -0.0400
24     C24     1.0765    1.8869    0.6054 C.ar     1 ZINC000026005586   -0.0800
25     N25     2.2936    1.3454    1.2504 N.pl3    1 ZINC000026005586    0.0400
26     O26     2.2415    0.2947    1.8642 O.2      1 ZINC000026005586   -0.1400
27     O27     3.3474    1.9506    1.1674 O.2      1 ZINC000026005586   -0.1900
28     H28     4.2061    5.7437    0.7333 H        1 ZINC000026005586    0.1100
29     H29     3.9601    5.8517   -1.0262 H        1 ZINC000026005586    0.1100
30     H30     2.4769    7.8117   -0.6984 H        1 ZINC000026005586    0.1100
31     H31     2.7230    7.7036    1.0611 H        1 ZINC000026005586    0.1100
32     H32     4.7874    8.2537    2.0325 H        1 ZINC000026005586    0.2100
33     H33     8.7021   12.3432   -3.3759 H        1 ZINC000026005586    0.0800
34     H34     9.1976   10.6978   -3.8746 H        1 ZINC000026005586    0.0900
35     H35     6.6605   12.2213   -4.5559 H        1 ZINC000026005586    0.0800
36     H36     7.5896   11.0589   -5.5605 H        1 ZINC000026005586    0.0900
37     H37     5.2973   10.3281   -4.1931 H        1 ZINC000026005586    0.0800
38     H38     6.6429    9.1866   -4.4889 H        1 ZINC000026005586    0.0800
39     H39     3.1502    3.4292   -0.0834 H        1 ZINC000026005586    0.4300
40     H40    -0.0112    4.6064   -1.0877 H        1 ZINC000026005586    0.1600
41     H41    -2.0911    3.2903   -1.0719 H        1 ZINC000026005586    0.1500
42     H42    -2.1420    1.0782    0.0050 H        1 ZINC000026005586    0.1500
43     H43    -0.1201    0.1842    1.0870 H        1 ZINC000026005586    0.1600
@<TRIPOS>BOND
1     1     2     2
2     2     3     1
3     2     18    am
4     3     4     1
5     3     28    1
6     3     29    1
7     4     5     1
8     4     30    1
9     4     31    1
10    5     16    am
11    5     6     1
12    6     7     2
13    6     32    1
14    7     8     1
15    8     15    1
16    8     9     2
17    9     10    1
18    9     16    1
19    10    14    1
20    10    11    2
21    11    12    1
22    11    15    1
23    12    13    1
24    12    33    1
25    12    34    1
26    13    14    1
27    13    35    1
28    13    36    1
29    14    37    1
30    14    38    1
31    16    17    2
32    18    19    1
33    18    39    1
34    19    24    ar
35    19    20    ar
36    20    21    ar
37    20    40    1
38    21    22    ar
39    21    41    1
40    22    23    ar
41    22    42    1
42    23    24    ar
43    23    43    1
44    24    25    1
45    25    26    2
46    25    27    2
@<TRIPOS>SUBSTRUCTURE
1   ZINC000026005586 1     RESIDUE    1   A     ZIN   1
