@<TRIPOS>MOLECULE
ZINC000117713062
47    50    1     0     0
SMALL
USER_CHARGES
@<TRIPOS>ATOM
1      C1     -3.4626   -3.4979   -0.8564 C.3      1 ZINC000117713062    0.0900
2      N2     -2.7870   -2.2930   -0.3686 N.pl3    1 ZINC000117713062   -0.3700
3      C3     -1.5125   -1.9448   -0.6261 C.2      1 ZINC000117713062    0.1100
4      C4     -1.2714   -0.7592    0.0101 C.2      1 ZINC000117713062   -0.2300
5      C5      0.0021   -0.0041    0.0020 C.ar     1 ZINC000117713062    0.3400
6      N6      1.1572   -0.6561   -0.0121 N.ar     1 ZINC000117713062   -0.5200
7      C7      2.3199   -0.0229   -0.0198 C.ar     1 ZINC000117713062    0.4100
8      N8      3.4965   -0.7549   -0.0345 N.pl3    1 ZINC000117713062   -0.7300
9      C9      3.4482   -2.2191   -0.0414 C.3      1 ZINC000117713062    0.1400
10     H10     2.5894   -2.5515   -0.6245 H        1 ZINC000117713062    0.1200
11     C11     3.3192   -2.7319    1.3943 C.3      1 ZINC000117713062   -0.1300
12     C12     4.5247   -2.2653    2.2128 C.3      1 ZINC000117713062   -0.1300
13     C13     5.8087   -2.8149    1.5884 C.3      1 ZINC000117713062   -0.1200
14     C14     5.9377   -2.3021    0.1527 C.3      1 ZINC000117713062   -0.1400
15     C15     4.7322   -2.7688   -0.6659 C.3      1 ZINC000117713062    0.0200
16     H16     4.6963   -3.8581   -0.6710 H        1 ZINC000117713062    0.1600
17     N17     4.8561   -2.2764   -2.0443 N.4      1 ZINC000117713062   -0.6400
18     H18     4.8894   -1.2679   -2.0395 H        1 ZINC000117713062    0.4300
19     H19     5.7029   -2.6389   -2.4561 H        1 ZINC000117713062    0.4400
20     H20     4.0611   -2.5841   -2.5841 H        1 ZINC000117713062    0.4400
21     C21     2.3773    1.3751   -0.0128 C.ar     1 ZINC000117713062   -0.0100
22     F22     3.5687    2.0121   -0.0207 F        1 ZINC000117713062   -0.1300
23     C23     1.2051    2.0905    0.0018 C.ar     1 ZINC000117713062   -0.0300
24     C24    -0.0170    1.4018    0.0097 C.ar     1 ZINC000117713062   -0.2300
25     C25    -1.1012    2.3907    0.0196 C.2      1 ZINC000117713062    0.5700
26     O26    -2.2871    2.1202    0.0226 O.2      1 ZINC000117713062   -0.5100
27     N27    -0.5989    3.6381    0.0273 N.am     1 ZINC000117713062   -0.7200
28     C28     0.8671    3.5576    0.0129 C.3      1 ZINC000117713062    0.1400
29     C29    -2.4559   -0.3902    0.6807 C.2      1 ZINC000117713062    0.1100
30     N30    -3.3564   -1.3063    0.4451 N.2      1 ZINC000117713062   -0.2900
31     H31    -3.3215   -4.3083   -0.1412 H        1 ZINC000117713062    0.0800
32     H32    -4.5276   -3.2961   -0.9713 H        1 ZINC000117713062    0.1000
33     H33    -3.0414   -3.7859   -1.8196 H        1 ZINC000117713062    0.0900
34     H34    -0.8081   -2.5013   -1.2266 H        1 ZINC000117713062    0.1800
35     H35     4.3520   -0.2978   -0.0402 H        1 ZINC000117713062    0.4100
36     H36     2.4044   -2.3403    1.8392 H        1 ZINC000117713062    0.0900
37     H37     3.2832   -3.8213    1.3891 H        1 ZINC000117713062    0.0800
38     H38     4.4327   -2.6306    3.2356 H        1 ZINC000117713062    0.0800
39     H39     4.5606   -1.1759    2.2180 H        1 ZINC000117713062    0.0700
40     H40     5.7728   -3.9043    1.5832 H        1 ZINC000117713062    0.0800
41     H41     6.6675   -2.4825    2.1715 H        1 ZINC000117713062    0.0900
42     H42     6.8525   -2.6937   -0.2922 H        1 ZINC000117713062    0.1000
43     H43     5.9737   -1.2127    0.1578 H        1 ZINC000117713062    0.0800
44     H44    -1.1195    4.4565    0.0364 H        1 ZINC000117713062    0.4300
45     H45     1.2774    4.0302    0.9053 H        1 ZINC000117713062    0.1100
46     H46     1.2613    4.0400   -0.8815 H        1 ZINC000117713062    0.1100
47     H47    -2.5948    0.4963    1.2817 H        1 ZINC000117713062    0.1900
@<TRIPOS>BOND
1     1     2     1
2     1     31    1
3     1     32    1
4     1     33    1
5     2     30    1
6     2     3     1
7     3     4     2
8     3     34    1
9     4     5     1
10    4     29    1
11    5     24    ar
12    5     6     ar
13    6     7     ar
14    7     8     1
15    7     21    ar
16    8     9     1
17    8     35    1
18    9     10    1
19    9     15    1
20    9     11    1
21    11    12    1
22    11    36    1
23    11    37    1
24    12    13    1
25    12    38    1
26    12    39    1
27    13    14    1
28    13    40    1
29    13    41    1
30    14    15    1
31    14    42    1
32    14    43    1
33    15    16    1
34    15    17    1
35    17    18    1
36    17    19    1
37    17    20    1
38    21    22    1
39    21    23    ar
40    23    28    1
41    23    24    ar
42    24    25    1
43    25    26    2
44    25    27    am
45    27    28    1
46    27    44    1
47    28    45    1
48    28    46    1
49    29    30    2
50    29    47    1
@<TRIPOS>SUBSTRUCTURE
1   ZINC000117713062 1     RESIDUE    1   A     ZIN   1
