@<TRIPOS>MOLECULE
ZINC000001488207
  37   39    0    0    0
SMALL
USER_CHARGES
NO_NAME
@<TRIPOS>ATOM
    1 C1        0.1345     1.4541    -0.0467 C.3    1 <0>      -0.0600
    2 C2        0.1635    -0.0082     0.1201 C.1    1 <0>      -0.0500
    3 C3        0.1867    -1.1744     0.2531 C.1    1 <0>      -0.2500
    4 C4        0.2150    -2.5969     0.4153 C.2    1 <0>       0.6400
    5 O5       -0.6327    -3.1489     1.0907 O.2    1 <0>      -0.5000
    6 N6        1.1809    -3.3240    -0.1803 N.am   1 <0>      -0.6600
    7 C7        1.2679    -4.6996     0.0576 C.ar   1 <0>       0.1400
    8 C8        0.0994    -5.4510     0.2136 C.ar   1 <0>      -0.0700
    9 C9        0.1545    -6.7918     0.4462 C.ar   1 <0>      -0.0900
   10 C10       1.3972    -7.4341     0.5316 C.ar   1 <0>       0.1800
   11 N11       1.4984    -8.7528     0.7589 N.ar   1 <0>      -0.5400
   12 C12       2.6752    -9.3269     0.8334 C.ar   1 <0>       0.3400
   13 N13       3.8116    -8.6624     0.6933 N.ar   1 <0>      -0.5800
   14 C14       3.8262    -7.3561     0.4657 C.ar   1 <0>       0.4600
   15 N15       5.0178    -6.6750     0.3215 N.pl3  1 <0>      -0.6400
   16 C16       6.2264    -7.3770     0.3047 C.ar   1 <0>       0.1600
   17 C17       6.2808    -8.6562    -0.2337 C.ar   1 <0>      -0.1000
   18 C18       7.4766    -9.3474    -0.2495 C.ar   1 <0>      -0.0900
   19 C19       8.6191    -8.7676     0.2698 C.ar   1 <0>      -0.1100
   20 C20       8.5689    -7.4931     0.8071 C.ar   1 <0>      -0.0700
   21 Br21     10.1347    -6.7042     1.5157 Br     1 <0>      -0.0400
   22 C22       7.3769    -6.7945     0.8211 C.ar   1 <0>      -0.1200
   23 C23       2.5852    -6.6787     0.3746 C.ar   1 <0>      -0.1700
   24 C24       2.5068    -5.3041     0.1308 C.ar   1 <0>      -0.1000
   25 H25       0.9660     1.7642    -0.6796 H      1 <0>       0.1000
   26 H26      -0.8060     1.7480    -0.5127 H      1 <0>       0.0900
   27 H27       0.2219     1.9328     0.9286 H      1 <0>       0.1000
   28 H28       1.8156    -2.8934    -0.7741 H      1 <0>       0.4200
   29 H29      -0.8609    -4.9611     0.1491 H      1 <0>       0.1500
   30 H30      -0.7571    -7.3586     0.5649 H      1 <0>       0.1500
   31 H31       2.7193   -10.3901     1.0179 H      1 <0>       0.2000
   32 H32       5.0166    -5.7092     0.2319 H      1 <0>       0.4200
   33 H33       5.3887    -9.1102    -0.6393 H      1 <0>       0.1400
   34 H34       7.5190   -10.3422    -0.6678 H      1 <0>       0.1400
   35 H35       9.5527    -9.3104     0.2565 H      1 <0>       0.1300
   36 H36       7.3380    -5.7998     1.2401 H      1 <0>       0.1300
   37 H37       3.4067    -4.7205     0.0044 H      1 <0>       0.1300
@<TRIPOS>BOND
   1    1    2 1
   2    1   25 1
   3    1   26 1
   4    1   27 1
   5    2    3 3
   6    3    4 1
   7    4    5 2
   8    4    6 am
   9    6    7 1
  10    6   28 1
  11    7   24 ar
  12    7    8 ar
  13    8    9 ar
  14    8   29 1
  15    9   10 ar
  16    9   30 1
  17   10   23 ar
  18   10   11 ar
  19   11   12 ar
  20   12   13 ar
  21   12   31 1
  22   13   14 ar
  23   14   15 1
  24   14   23 ar
  25   15   16 1
  26   15   32 1
  27   16   22 ar
  28   16   17 ar
  29   17   18 ar
  30   17   33 1
  31   18   19 ar
  32   18   34 1
  33   19   20 ar
  34   19   35 1
  35   20   21 1
  36   20   22 ar
  37   22   36 1
  38   23   24 ar
  39   24   37 1
