@<TRIPOS>MOLECULE
ZINC000000117346
20    21    1     0     0
SMALL
USER_CHARGES
@<TRIPOS>ATOM
1      O1      0.0021   -0.0041    0.0020 O.co2    1 ZINC000000117346   -0.6800
2      C2     -0.0145    1.2196    0.0087 C.2      1 ZINC000000117346    0.5300
3      O3      1.0369    1.8458    0.0021 O.co2    1 ZINC000000117346   -0.6600
4      C4     -1.2967    1.9368    0.0187 C.ar     1 ZINC000000117346   -0.2000
5      C5     -2.5093    1.2248    0.0265 C.ar     1 ZINC000000117346    0.2000
6      N6     -3.6639    1.8383    0.0360 N.ar     1 ZINC000000117346   -0.4900
7      C7     -3.7572    3.1756    0.0388 C.ar     1 ZINC000000117346    0.1500
8      C8     -5.0120    3.8077    0.0495 C.ar     1 ZINC000000117346    0.0000
9      Cl9    -6.4648    2.8573    0.0595 Cl       1 ZINC000000117346   -0.0300
10     C10    -5.0861    5.1691    0.0526 C.ar     1 ZINC000000117346   -0.0900
11     C11    -3.9339    5.9508    0.0452 C.ar     1 ZINC000000117346   -0.0400
12     Cl12   -4.0708    7.6814    0.0493 Cl       1 ZINC000000117346   -0.0400
13     C13    -2.6976    5.3715    0.0351 C.ar     1 ZINC000000117346    0.0100
14     Cl14   -1.2705    6.3600    0.0271 Cl       1 ZINC000000117346   -0.0200
15     C15    -2.5870    3.9721    0.0313 C.ar     1 ZINC000000117346   -0.1200
16     C16    -1.3245    3.3385    0.0265 C.ar     1 ZINC000000117346    0.2000
17     O17    -0.1811    4.0598    0.0249 O.3      1 ZINC000000117346   -0.4500
18     H18    -2.4864    0.1450    0.0243 H        1 ZINC000000117346    0.1800
19     H19    -6.0538    5.6487    0.0605 H        1 ZINC000000117346    0.1500
20     H20     0.1540    4.2677    0.9078 H        1 ZINC000000117346    0.3900
@<TRIPOS>BOND
1     1     2     ar
2     2     3     ar
3     2     4     1
4     4     16    ar
5     4     5     ar
6     5     6     ar
7     5     18    1
8     6     7     ar
9     7     15    ar
10    7     8     ar
11    8     9     1
12    8     10    ar
13    10    11    ar
14    10    19    1
15    11    12    1
16    11    13    ar
17    13    14    1
18    13    15    ar
19    15    16    ar
20    16    17    1
21    17    20    1
@<TRIPOS>SUBSTRUCTURE
1   ZINC000000117346 1     RESIDUE    1   A     ZIN   1
