@<TRIPOS>MOLECULE
ZINC000043203898
75    79    1     0     0
SMALL
USER_CHARGES
@<TRIPOS>ATOM
1      C1     -0.0000    1.4257   -0.0086 C.3      1 ZINC000043203898    0.0300
2      O2      0.0140   -0.0032   -0.0099 O.3      1 ZINC000043203898   -0.3100
3      C3      0.5993   -0.6141   -1.0752 C.ar     1 ZINC000043203898    0.0800
4      C4      1.1496    0.1438   -2.0874 C.ar     1 ZINC000043203898   -0.1200
5      C5      1.7516   -0.4863   -3.1822 C.ar     1 ZINC000043203898   -0.1800
6      C6      2.3413    0.3198   -4.2661 C.2      1 ZINC000043203898    0.5700
7      O7      2.8642   -0.2293   -5.2169 O.2      1 ZINC000043203898   -0.5100
8      N8      2.3011    1.6655   -4.2034 N.am     1 ZINC000043203898   -0.7300
9      C9      2.8873    2.4668   -5.2808 C.3      1 ZINC000043203898    0.1400
10     C10     1.8610    2.6443   -6.4035 C.3      1 ZINC000043203898   -0.1600
11     C11     2.4513    3.5475   -7.4885 C.3      1 ZINC000043203898    0.0000
12     N12     2.7815    4.8572   -6.9138 N.4      1 ZINC000043203898   -0.3900
13     H13     1.9545    5.2594   -6.4987 H        1 ZINC000043203898    0.4200
14     C14     3.2765    5.7450   -7.9744 C.3      1 ZINC000043203898   -0.0500
15     C15     3.8177    4.7030   -5.8857 C.3      1 ZINC000043203898    0.0000
16     C16     3.2800    3.8442   -4.7390 C.3      1 ZINC000043203898   -0.1600
17     C17     1.7929   -1.8838   -3.2454 C.ar     1 ZINC000043203898    0.1700
18     F18     2.3736   -2.4960   -4.3004 F        1 ZINC000043203898   -0.1100
19     C19     1.2400   -2.6363   -2.2284 C.ar     1 ZINC000043203898   -0.1500
20     C20     0.6477   -2.0087   -1.1401 C.ar     1 ZINC000043203898    0.2200
21     N21     0.0909   -2.7723   -0.1151 N.pl3    1 ZINC000043203898   -0.6200
22     C22     0.5466   -4.0622    0.1148 C.ar     1 ZINC000043203898    0.5700
23     N23     1.5921   -4.5041   -0.5664 N.ar     1 ZINC000043203898   -0.5400
24     C24     2.0565   -5.7345   -0.3837 C.ar     1 ZINC000043203898    0.2000
25     C25     1.4309   -6.5514    0.5386 C.ar     1 ZINC000043203898   -0.0100
26     C26     0.3362   -6.0509    1.2541 C.ar     1 ZINC000043203898    0.3900
27     N27    -0.0751   -4.8126    1.0141 N.ar     1 ZINC000043203898   -0.5500
28     N28    -0.2769   -6.8348    2.2139 N.3      1 ZINC000043203898   -0.4700
29     C29    -0.9949   -6.0054    3.1910 C.3      1 ZINC000043203898    0.0900
30     C30    -1.4809   -6.8687    4.3816 C.3      1 ZINC000043203898   -0.1200
31     C31    -1.6341   -5.8278    5.5184 C.3      1 ZINC000043203898   -0.1200
32     C32    -0.4458   -4.8657    5.3131 C.3      1 ZINC000043203898   -0.1200
33     C33    -0.0394   -4.9787    3.8333 C.3      1 ZINC000043203898   -0.1100
34     C34    -1.1649   -7.8436    1.6277 C.3      1 ZINC000043203898    0.0200
35     C35    -0.4938   -8.5186    0.4352 C.3      1 ZINC000043203898    0.2800
36     F36    -1.1833   -9.6951    0.1226 F        1 ZINC000043203898   -0.1600
37     F37    -0.5316   -7.6554   -0.6651 F        1 ZINC000043203898   -0.1800
38     C38     0.9388   -8.8526    0.7544 C.2      1 ZINC000043203898    0.5000
39     O39     1.2600   -9.9954    1.0043 O.2      1 ZINC000043203898   -0.4700
40     N40     1.8637   -7.8679    0.7595 N.am     1 ZINC000043203898   -0.5300
41     C41     3.2794   -8.1661    0.9897 C.3      1 ZINC000043203898    0.0800
42     H42     1.0237    1.7991   -0.0343 H        1 ZINC000043203898    0.0600
43     H43    -0.5398    1.7845   -0.8849 H        1 ZINC000043203898    0.0600
44     H44    -0.4947    1.7834    0.8945 H        1 ZINC000043203898    0.1100
45     H45     1.1155    1.2221   -2.0354 H        1 ZINC000043203898    0.1400
46     H46     1.8841    2.1035   -3.4451 H        1 ZINC000043203898    0.4000
47     H47     3.7717    1.9626   -5.6702 H        1 ZINC000043203898    0.1100
48     H48     1.6182    1.6719   -6.8318 H        1 ZINC000043203898    0.1200
49     H49     0.9570    3.1016   -6.0013 H        1 ZINC000043203898    0.0900
50     H50     3.3550    3.0892   -7.8901 H        1 ZINC000043203898    0.1300
51     H51     1.7233    3.6759   -8.2895 H        1 ZINC000043203898    0.1400
52     H52     2.5062    5.8656   -8.7361 H        1 ZINC000043203898    0.1300
53     H53     3.5220    6.7179   -7.5486 H        1 ZINC000043203898    0.1200
54     H54     4.1685    5.3101   -8.4253 H        1 ZINC000043203898    0.1200
55     H55     4.6923    4.2200   -6.3215 H        1 ZINC000043203898    0.1300
56     H56     4.0984    5.6844   -5.5033 H        1 ZINC000043203898    0.1400
57     H57     2.4054    4.3264   -4.3022 H        1 ZINC000043203898    0.0900
58     H58     4.0514    3.7295   -3.9775 H        1 ZINC000043203898    0.1200
59     H59     1.2716   -3.7148   -2.2774 H        1 ZINC000043203898    0.1800
60     H60    -0.6151   -2.4017    0.4372 H        1 ZINC000043203898    0.4300
61     H61     2.9072   -6.0903   -0.9458 H        1 ZINC000043203898    0.1800
62     H62    -1.8354   -5.4994    2.7160 H        1 ZINC000043203898    0.0800
63     H63    -2.4390   -7.3361    4.1542 H        1 ZINC000043203898    0.0700
64     H64    -0.7359   -7.6199    4.6436 H        1 ZINC000043203898    0.0800
65     H65    -2.5790   -5.2932    5.4213 H        1 ZINC000043203898    0.0700
66     H66    -1.5679   -6.3136    6.4919 H        1 ZINC000043203898    0.0700
67     H67    -0.7493   -3.8437    5.5400 H        1 ZINC000043203898    0.0700
68     H68     0.3868   -5.1591    5.9524 H        1 ZINC000043203898    0.0700
69     H69     0.9905   -5.3268    3.7544 H        1 ZINC000043203898    0.0700
70     H70    -0.1457   -4.0115    3.3420 H        1 ZINC000043203898    0.0700
71     H71    -1.4014   -8.5956    2.3805 H        1 ZINC000043203898    0.1400
72     H72    -2.0862   -7.3637    1.2978 H        1 ZINC000043203898    0.0900
73     H73     3.4052   -9.2385    1.1391 H        1 ZINC000043203898    0.1000
74     H74     3.8628   -7.8487    0.1255 H        1 ZINC000043203898    0.0700
75     H75     3.6235   -7.6330    1.8760 H        1 ZINC000043203898    0.0800
@<TRIPOS>BOND
1     1     2     1
2     1     42    1
3     1     43    1
4     1     44    1
5     2     3     1
6     3     20    ar
7     3     4     ar
8     4     5     ar
9     4     45    1
10    5     6     1
11    5     17    ar
12    6     7     2
13    6     8     am
14    8     9     1
15    8     46    1
16    9     16    1
17    9     10    1
18    9     47    1
19    10    11    1
20    10    48    1
21    10    49    1
22    11    12    1
23    11    50    1
24    11    51    1
25    12    13    1
26    12    14    1
27    12    15    1
28    14    52    1
29    14    53    1
30    14    54    1
31    15    16    1
32    15    55    1
33    15    56    1
34    16    57    1
35    16    58    1
36    17    18    1
37    17    19    ar
38    19    20    ar
39    19    59    1
40    20    21    1
41    21    22    1
42    21    60    1
43    22    27    ar
44    22    23    ar
45    23    24    ar
46    24    25    ar
47    24    61    1
48    25    40    1
49    25    26    ar
50    26    27    ar
51    26    28    1
52    28    29    1
53    28    34    1
54    29    33    1
55    29    30    1
56    29    62    1
57    30    31    1
58    30    63    1
59    30    64    1
60    31    32    1
61    31    65    1
62    31    66    1
63    32    33    1
64    32    67    1
65    32    68    1
66    33    69    1
67    33    70    1
68    34    35    1
69    34    71    1
70    34    72    1
71    35    36    1
72    35    37    1
73    35    38    1
74    38    39    2
75    38    40    am
76    40    41    1
77    41    73    1
78    41    74    1
79    41    75    1
@<TRIPOS>SUBSTRUCTURE
1   ZINC000043203898 1     RESIDUE    1   A     ZIN   1
