@<TRIPOS>MOLECULE
ZINC000013660164
31    30    1     0     0
SMALL
USER_CHARGES
@<TRIPOS>ATOM
1      C1     -0.0160    1.3283    0.0093 C.2      1 ZINC000013660164   -0.2400
2      C2      0.0021   -0.0041    0.0020 C.2      1 ZINC000013660164   -0.1200
3      C3     -1.2583   -0.7548    0.0100 C.2      1 ZINC000013660164    0.5100
4      O4     -2.3262   -0.1574    0.0234 O.co2    1 ZINC000013660164   -0.7300
5      O5     -1.2417   -1.9784    0.0033 O.co2    1 ZINC000013660164   -0.6300
6      C6      1.3172   -0.7397   -0.0145 C.3      1 ZINC000013660164   -0.1100
7      H7      2.1360   -0.0202   -0.0184 H        1 ZINC000013660164    0.0400
8      C8      1.4221   -1.6249    1.2291 C.3      1 ZINC000013660164   -0.0900
9      C9      2.8061   -2.2753    1.2768 C.3      1 ZINC000013660164   -0.1100
10     C10     2.9110   -3.1605    2.5204 C.3      1 ZINC000013660164   -0.1200
11     C11     4.2950   -3.8109    2.5681 C.3      1 ZINC000013660164   -0.1200
12     C12     4.3999   -4.6961    3.8117 C.3      1 ZINC000013660164   -0.1300
13     C13     5.7839   -5.3465    3.8594 C.3      1 ZINC000013660164   -0.1500
14     C14     1.3970   -1.5983   -1.2504 C.2      1 ZINC000013660164    0.5000
15     O15     2.2903   -1.4191   -2.0606 O.co2    1 ZINC000013660164   -0.7400
16     O16     0.5683   -2.4722   -1.4401 O.co2    1 ZINC000013660164   -0.6400
17     H17     0.9119    1.8810    0.0035 H        1 ZINC000013660164    0.0700
18     H18    -0.9585    1.8555    0.0167 H        1 ZINC000013660164    0.0900
19     H19     1.2756   -1.0164    2.1215 H        1 ZINC000013660164    0.0300
20     H20     0.6573   -2.4005    1.1885 H        1 ZINC000013660164    0.0900
21     H21     2.9526   -2.8838    0.3844 H        1 ZINC000013660164    0.0600
22     H22     3.5709   -1.4997    1.3173 H        1 ZINC000013660164    0.0400
23     H23     2.7645   -2.5520    3.4128 H        1 ZINC000013660164    0.0500
24     H24     2.1462   -3.9361    2.4798 H        1 ZINC000013660164    0.0600
25     H25     4.4415   -4.4194    1.6757 H        1 ZINC000013660164    0.0600
26     H26     5.0598   -3.0353    2.6086 H        1 ZINC000013660164    0.0600
27     H27     4.2534   -4.0876    4.7041 H        1 ZINC000013660164    0.0600
28     H28     3.6351   -5.4717    3.7712 H        1 ZINC000013660164    0.0600
29     H29     5.8587   -5.9771    4.7453 H        1 ZINC000013660164    0.0500
30     H30     5.9304   -5.9550    2.9670 H        1 ZINC000013660164    0.0500
31     H31     6.5487   -4.5709    3.8999 H        1 ZINC000013660164    0.0500
@<TRIPOS>BOND
1     1     2     2
2     1     17    1
3     1     18    1
4     2     3     1
5     2     6     1
6     3     4     ar
7     3     5     ar
8     6     7     1
9     6     8     1
10    6     14    1
11    8     9     1
12    8     19    1
13    8     20    1
14    9     10    1
15    9     21    1
16    9     22    1
17    10    11    1
18    10    23    1
19    10    24    1
20    11    12    1
21    11    25    1
22    11    26    1
23    12    13    1
24    12    27    1
25    12    28    1
26    13    29    1
27    13    30    1
28    13    31    1
29    14    15    ar
30    14    16    ar
@<TRIPOS>SUBSTRUCTURE
1   ZINC000013660164 1     RESIDUE    1   A     ZIN   1
