@<TRIPOS>MOLECULE
ZINC000036176170
  27   29    0    0    0
SMALL
USER_CHARGES
NO_NAME
@<TRIPOS>ATOM
    1 O1        0.0021    -0.0041     0.0020 O.2    1 <0>      -0.5400
    2 C2       -0.0145     1.2207     0.0088 C.2    1 <0>       0.3400
    3 C3       -1.2276     1.9036     0.0298 C.2    1 <0>      -0.5400
    4 C4       -1.2679     3.2952     0.0448 C.2    1 <0>       0.3400
    5 O5       -2.3443     3.8794     0.0694 O.3    1 <0>      -0.5400
    6 C6        0.0051     4.0710     0.0311 C.2    1 <0>       0.3400
    7 O7        0.0441     5.2011    -0.3937 O.2    1 <0>      -0.4300
    8 C8        1.2498     3.3911     0.5701 C.3    1 <0>      -0.1100
    9 C9        1.1937     3.3311     2.0749 C.2    1 <0>      -0.1600
   10 C10       0.2580     2.7161     2.8151 C.2    1 <0>       0.0900
   11 N11       0.5367     2.8747     4.1453 N.pl3  1 <0>      -0.5900
   12 C12       1.6884     3.6148     4.2974 C.ar   1 <0>       0.1100
   13 C13       2.4012     4.0567     5.4068 C.ar   1 <0>      -0.1200
   14 C14       3.5488     4.7992     5.2354 C.ar   1 <0>      -0.0800
   15 C15       4.0053     5.1137     3.9620 C.ar   1 <0>      -0.1200
   16 Br16      5.5835     6.1345     3.7544 Br     1 <0>      -0.0600
   17 C17       3.3152     4.6859     2.8496 C.ar   1 <0>      -0.0300
   18 C18       2.1536     3.9275     3.0071 C.ar   1 <0>      -0.0900
   19 C19       1.2642     1.9871     0.0007 C.2    1 <0>       0.3400
   20 O20       2.2759     1.5059    -0.4512 O.2    1 <0>      -0.4300
   21 H21      -2.1520     1.3450     0.0343 H      1 <0>       0.1200
   22 H22       2.1391     3.9350     0.2518 H      1 <0>       0.1200
   23 H23      -0.5896     2.1763     2.4194 H      1 <0>       0.1900
   24 H24       0.0027     2.5189     4.8728 H      1 <0>       0.4200
   25 H25       2.0552     3.8182     6.4017 H      1 <0>       0.1300
   26 H26       4.0988     5.1405     6.0999 H      1 <0>       0.1300
   27 H27       3.6729     4.9322     1.8608 H      1 <0>       0.1300
@<TRIPOS>BOND
   1    1    2 2
   2    2   19 1
   3    2    3 1
   4    3    4 2
   5    3   21 1
   6    4    5 1
   7    4    6 1
   8    6    7 2
   9    6    8 1
  10    8    9 1
  11    8   19 1
  12    8   22 1
  13    9   18 1
  14    9   10 2
  15   10   11 1
  16   10   23 1
  17   11   12 1
  18   11   24 1
  19   12   18 ar
  20   12   13 ar
  21   13   14 ar
  22   13   25 1
  23   14   15 ar
  24   14   26 1
  25   15   16 1
  26   15   17 ar
  27   17   18 ar
  28   17   27 1
  29   19   20 2
