@<TRIPOS>MOLECULE
ZINC000042834601
71    77    1     0     0
SMALL
USER_CHARGES
@<TRIPOS>ATOM
1      O1      0.0021   -0.0041    0.0020 O.2      1 ZINC000042834601   -0.5100
2      C2     -0.0144    1.2137    0.0087 C.2      1 ZINC000042834601    0.5500
3      N3     -1.1862    1.8795    0.0291 N.am     1 ZINC000042834601   -0.6300
4      C4     -1.2470    3.2418    0.0373 C.2      1 ZINC000042834601    0.1400
5      C5     -0.1479    4.0141    0.0256 C.2      1 ZINC000042834601   -0.2000
6      C6      1.1750    3.3872    0.0037 C.ar     1 ZINC000042834601    0.2200
7      N7      2.2871    4.1123   -0.0089 N.ar     1 ZINC000042834601   -0.4700
8      C8      3.4816    3.5430   -0.0291 C.ar     1 ZINC000042834601    0.2100
9      C9      4.6928    4.3956   -0.0420 C.ar     1 ZINC000042834601   -0.0100
10     C10     5.8457    3.9842    0.6264 C.ar     1 ZINC000042834601   -0.0800
11     C11     6.9709    4.7828    0.6108 C.ar     1 ZINC000042834601   -0.1000
12     C12     6.9569    5.9893   -0.0660 C.ar     1 ZINC000042834601   -0.1500
13     C13     8.1892    6.8567   -0.0790 C.3      1 ZINC000042834601    0.0400
14     N14     9.0273    6.4995   -1.2314 N.4      1 ZINC000042834601   -0.3800
15     H15     9.2303    5.5115   -1.2049 H        1 ZINC000042834601    0.4200
16     C16    10.2831    7.2573   -1.1748 C.3      1 ZINC000042834601    0.0000
17     C17    11.1936    6.8298   -2.3279 C.3      1 ZINC000042834601   -0.1400
18     C18    10.4877    7.1071   -3.6583 C.3      1 ZINC000042834601   -0.0100
19     C19    11.3459    6.6166   -4.7959 C.2      1 ZINC000042834601    0.1700
20     N20    12.1937    7.3313   -5.4875 N.2      1 ZINC000042834601   -0.2700
21     N21    12.7581    6.6005   -6.3821 N.2      1 ZINC000042834601   -0.2600
22     C22    12.2942    5.3730   -6.3048 C.2      1 ZINC000042834601    0.2500
23     C23    12.6865    4.2284   -7.1558 C.ar     1 ZINC000042834601    0.1700
24     C24    13.6433    4.4051   -8.1549 C.ar     1 ZINC000042834601   -0.1200
25     C25    13.9998    3.3244   -8.9429 C.ar     1 ZINC000042834601   -0.0700
26     C26    13.3881    2.1016   -8.7066 C.ar     1 ZINC000042834601   -0.1500
27     C27    12.4466    1.9970   -7.6984 C.ar     1 ZINC000042834601    0.1100
28     N28    12.1288    3.0392   -6.9588 N.ar     1 ZINC000042834601   -0.4800
29     N29    11.3830    5.3541   -5.2835 N.pl3    1 ZINC000042834601   -0.5600
30     C30     9.1449    6.3710   -3.6756 C.3      1 ZINC000042834601   -0.1500
31     C31     8.3110    6.8172   -2.4726 C.3      1 ZINC000042834601   -0.0100
32     C32     5.8165    6.4026   -0.7312 C.ar     1 ZINC000042834601   -0.1000
33     C33     4.6868    5.6103   -0.7273 C.ar     1 ZINC000042834601   -0.0700
34     C34     3.6228    2.1413   -0.0382 C.ar     1 ZINC000042834601   -0.1100
35     C35     4.9705    1.5251   -0.0604 C.ar     1 ZINC000042834601   -0.0500
36     C36     5.9180    1.9477   -0.9919 C.ar     1 ZINC000042834601   -0.1000
37     C37     7.1714    1.3706   -1.0074 C.ar     1 ZINC000042834601   -0.1200
38     C38     7.4885    0.3745   -0.1013 C.ar     1 ZINC000042834601   -0.1100
39     C39     6.5525   -0.0489    0.8251 C.ar     1 ZINC000042834601   -0.1100
40     C40     5.2977    0.5245    0.8538 C.ar     1 ZINC000042834601   -0.1000
41     C41     2.4837    1.3406   -0.0256 C.ar     1 ZINC000042834601    0.0200
42     C42     1.2400    1.9723    0.0008 C.ar     1 ZINC000042834601   -0.2000
43     H43    -2.0134    1.3730    0.0380 H        1 ZINC000042834601    0.4200
44     H44    -2.2161    3.7182    0.0534 H        1 ZINC000042834601    0.1700
45     H45    -0.2395    5.0902    0.0319 H        1 ZINC000042834601    0.1600
46     H46     5.8577    3.0427    1.1554 H        1 ZINC000042834601    0.1400
47     H47     7.8641    4.4655    1.1284 H        1 ZINC000042834601    0.1300
48     H48     7.8957    7.9038   -0.1538 H        1 ZINC000042834601    0.1400
49     H49     8.7521    6.7021    0.8415 H        1 ZINC000042834601    0.1400
50     H50    10.0681    8.3227   -1.2581 H        1 ZINC000042834601    0.1400
51     H51    10.7827    7.0615   -0.2261 H        1 ZINC000042834601    0.1400
52     H52    12.1247    7.3948   -2.2852 H        1 ZINC000042834601    0.1200
53     H53    11.4094    5.7645   -2.2455 H        1 ZINC000042834601    0.0900
54     H54    10.3188    8.1786   -3.7649 H        1 ZINC000042834601    0.1300
55     H55    14.0993    5.3714   -8.3117 H        1 ZINC000042834601    0.1500
56     H56    14.7374    3.4308   -9.7246 H        1 ZINC000042834601    0.1500
57     H57    13.6443    1.2395   -9.3045 H        1 ZINC000042834601    0.1500
58     H58    11.9690    1.0464   -7.5123 H        1 ZINC000042834601    0.1700
59     H59    10.8659    4.5933   -4.9756 H        1 ZINC000042834601    0.4300
60     H60     8.6117    6.6082   -4.5962 H        1 ZINC000042834601    0.1200
61     H61     9.3182    5.2963   -3.6211 H        1 ZINC000042834601    0.0900
62     H62     7.3539    6.2958   -2.4810 H        1 ZINC000042834601    0.1400
63     H63     8.1386    7.8921   -2.5291 H        1 ZINC000042834601    0.1400
64     H64     5.8117    7.3455   -1.2579 H        1 ZINC000042834601    0.1400
65     H65     3.7972    5.9338   -1.2473 H        1 ZINC000042834601    0.1400
66     H66     5.6714    2.7250   -1.7000 H        1 ZINC000042834601    0.1200
67     H67     7.9061    1.6969   -1.7287 H        1 ZINC000042834601    0.1200
68     H68     8.4706   -0.0745   -0.1175 H        1 ZINC000042834601    0.1300
69     H69     6.8057   -0.8272    1.5299 H        1 ZINC000042834601    0.1300
70     H70     4.5677    0.1931    1.5775 H        1 ZINC000042834601    0.1300
71     H71     2.5606    0.2633   -0.0325 H        1 ZINC000042834601    0.1600
@<TRIPOS>BOND
1     1     2     2
2     2     42    1
3     2     3     am
4     3     4     1
5     3     43    1
6     4     5     2
7     4     44    1
8     5     6     1
9     5     45    1
10    6     42    ar
11    6     7     ar
12    7     8     ar
13    8     9     1
14    8     34    ar
15    9     33    ar
16    9     10    ar
17    10    11    ar
18    10    46    1
19    11    12    ar
20    11    47    1
21    12    13    1
22    12    32    ar
23    13    14    1
24    13    48    1
25    13    49    1
26    14    15    1
27    14    31    1
28    14    16    1
29    16    17    1
30    16    50    1
31    16    51    1
32    17    18    1
33    17    52    1
34    17    53    1
35    18    19    1
36    18    30    1
37    18    54    1
38    19    29    1
39    19    20    2
40    20    21    1
41    21    22    2
42    22    23    1
43    22    29    1
44    23    28    ar
45    23    24    ar
46    24    25    ar
47    24    55    1
48    25    26    ar
49    25    56    1
50    26    27    ar
51    26    57    1
52    27    28    ar
53    27    58    1
54    29    59    1
55    30    31    1
56    30    60    1
57    30    61    1
58    31    62    1
59    31    63    1
60    32    33    ar
61    32    64    1
62    33    65    1
63    34    35    1
64    34    41    ar
65    35    40    ar
66    35    36    ar
67    36    37    ar
68    36    66    1
69    37    38    ar
70    37    67    1
71    38    39    ar
72    38    68    1
73    39    40    ar
74    39    69    1
75    40    70    1
76    41    42    ar
77    41    71    1
@<TRIPOS>SUBSTRUCTURE
1   ZINC000042834601 1     RESIDUE    1   A     ZIN   1
