@<TRIPOS>MOLECULE
ZINC000068247259
  47   49    0    0    0
SMALL
USER_CHARGES
NO_NAME
@<TRIPOS>ATOM
    1 C1       -0.4605     1.2419    -0.0814 C.3    1 <0>      -0.0700
    2 C2       -0.1788    -0.2361     0.0035 C.2    1 <0>       0.0700
    3 N3       -0.1816    -1.0764    -0.9993 N.2    1 <0>      -0.3000
    4 N4        0.1271    -2.3499    -0.5040 N.pl3  1 <0>      -0.3500
    5 C5        0.2284    -3.5802    -1.2929 C.3    1 <0>       0.1500
    6 C6        1.6665    -3.7529    -1.7860 C.3    1 <0>      -0.2000
    7 C7        1.7707    -5.0185    -2.5975 C.2    1 <0>       0.5000
    8 O8        0.7861    -5.7175    -2.7658 O.co2  1 <0>      -0.7000
    9 O9        2.8397    -5.3433    -3.0857 O.co2  1 <0>      -0.7000
   10 C10       0.3146    -2.2433     0.8281 C.2    1 <0>       0.0900
   11 C11       0.6653    -3.3672     1.7688 C.3    1 <0>      -0.1000
   12 C12       0.1368    -0.9453     1.1670 C.2    1 <0>      -0.2500
   13 C13       0.2502    -0.3677     2.5543 C.3    1 <0>       0.0100
   14 C14       1.6973    -0.0817     2.8626 C.ar   1 <0>      -0.0600
   15 C15       2.2079     1.1888     2.6550 C.ar   1 <0>      -0.0800
   16 C16       1.5366     2.4427     2.1367 C.3    1 <0>      -0.0900
   17 C17       2.4729     3.6001     2.5441 C.3    1 <0>      -0.1200
   18 C18       3.8462     2.9008     2.6286 C.3    1 <0>      -0.0700
   19 C19       3.5346     1.4521     2.9374 C.ar   1 <0>      -0.1200
   20 C20       4.3503     0.4404     3.4286 C.ar   1 <0>       0.1000
   21 O21       5.6555     0.6965     3.7078 O.3    1 <0>      -0.4900
   22 C22       3.8348    -0.8300     3.6349 C.ar   1 <0>      -0.1100
   23 C23       4.7201    -1.9267     4.1682 C.3    1 <0>      -0.1100
   24 C24       2.5065    -1.0869     3.3565 C.ar   1 <0>      -0.1000
   25 H25       0.4496     1.7694    -0.3669 H      1 <0>       0.0700
   26 H26      -1.2342     1.4220    -0.8277 H      1 <0>       0.0700
   27 H27      -0.8006     1.6033     0.8891 H      1 <0>       0.0700
   28 H28      -0.0480    -4.4331    -0.6730 H      1 <0>       0.0900
   29 H29      -0.4442    -3.5197    -2.1485 H      1 <0>       0.0900
   30 H30       1.9429    -2.9000    -2.4059 H      1 <0>       0.0700
   31 H31       2.3391    -3.8134    -0.9305 H      1 <0>       0.0600
   32 H32       1.7493    -3.4566     1.8400 H      1 <0>       0.0800
   33 H33       0.2524    -3.1573     2.7555 H      1 <0>       0.0800
   34 H34       0.2477    -4.3006     1.3913 H      1 <0>       0.0700
   35 H35      -0.3231     0.5577     2.6104 H      1 <0>       0.0800
   36 H36      -0.1413    -1.0821     3.2784 H      1 <0>       0.0700
   37 H37       1.4393     2.3988     1.0519 H      1 <0>       0.0900
   38 H38       0.5579     2.5669     2.6002 H      1 <0>       0.0800
   39 H39       2.4809     4.3788     1.7814 H      1 <0>       0.0800
   40 H40       2.1855     4.0082     3.5131 H      1 <0>       0.0700
   41 H41       4.3704     2.9802     1.6763 H      1 <0>       0.0800
   42 H42       4.4446     3.3377     3.4281 H      1 <0>       0.0700
   43 H43       5.8128     0.9938     4.6144 H      1 <0>       0.3800
   44 H44       4.6772    -1.9311     5.2573 H      1 <0>       0.0700
   45 H45       4.3768    -2.8885     3.7871 H      1 <0>       0.0700
   46 H46       5.7469    -1.7538     3.8458 H      1 <0>       0.0700
   47 H47       2.1027    -2.0757     3.5164 H      1 <0>       0.1300
@<TRIPOS>BOND
   1    1    2 1
   2    1   25 1
   3    1   26 1
   4    1   27 1
   5    2   12 1
   6    2    3 2
   7    3    4 1
   8    4    5 1
   9    4   10 1
  10    5    6 1
  11    5   28 1
  12    5   29 1
  13    6    7 1
  14    6   30 1
  15    6   31 1
  16    7    8 ar
  17    7    9 ar
  18   10   11 1
  19   10   12 2
  20   11   32 1
  21   11   33 1
  22   11   34 1
  23   12   13 1
  24   13   14 1
  25   13   35 1
  26   13   36 1
  27   14   24 ar
  28   14   15 ar
  29   15   19 ar
  30   15   16 1
  31   16   17 1
  32   16   37 1
  33   16   38 1
  34   17   18 1
  35   17   39 1
  36   17   40 1
  37   18   19 1
  38   18   41 1
  39   18   42 1
  40   19   20 ar
  41   20   21 1
  42   20   22 ar
  43   21   43 1
  44   22   23 1
  45   22   24 ar
  46   23   44 1
  47   23   45 1
  48   23   46 1
  49   24   47 1
