@<TRIPOS>MOLECULE
ZINC000095930185
59    63    1     0     0
SMALL
USER_CHARGES
@<TRIPOS>ATOM
1      C1     -0.5101    2.1392   -0.1814 C.3      1 ZINC000095930185   -0.1600
2      C2     -0.2834    0.6334   -0.0330 C.3      1 ZINC000095930185    0.1000
3      N3     -1.5763   -0.0554   -0.0125 N.am     1 ZINC000095930185   -0.5000
4      C4     -2.2067   -0.2550    1.1610 C.2      1 ZINC000095930185    0.5500
5      O5     -1.6986    0.1374    2.1962 O.2      1 ZINC000095930185   -0.4900
6      C6     -3.5000   -0.9409    1.1985 C.2      1 ZINC000095930185   -0.1500
7      C7     -4.1931   -1.1592    2.4897 C.ar     1 ZINC000095930185   -0.0200
8      C8     -3.7375   -2.1381    3.3717 C.ar     1 ZINC000095930185   -0.0700
9      C9     -4.3867   -2.3374    4.5730 C.ar     1 ZINC000095930185   -0.1000
10     C10    -5.4889   -1.5676    4.9037 C.ar     1 ZINC000095930185   -0.0200
11     Cl11   -6.3003   -1.8242    6.4168 Cl       1 ZINC000095930185   -0.0500
12     C12    -5.9462   -0.5935    4.0324 C.ar     1 ZINC000095930185   -0.1000
13     C13    -5.3013   -0.3817    2.8301 C.ar     1 ZINC000095930185   -0.0100
14     Cl14   -5.8754    0.8399    1.7384 Cl       1 ZINC000095930185   -0.0500
15     C15    -4.0632   -1.3783    0.0296 C.2      1 ZINC000095930185    0.0200
16     C16    -3.3782   -1.1551   -1.1865 C.ar     1 ZINC000095930185   -0.2700
17     C17    -3.9126   -1.5834   -2.4110 C.ar     1 ZINC000095930185    0.2600
18     N18    -3.2293   -1.3480   -3.5154 N.ar     1 ZINC000095930185   -0.5700
19     C19    -2.0594   -0.7195   -3.4795 C.ar     1 ZINC000095930185    0.6000
20     N20    -1.3862   -0.4984   -4.6652 N.pl3    1 ZINC000095930185   -0.6300
21     C21    -1.9900   -0.8282   -5.8852 C.ar     1 ZINC000095930185    0.1900
22     C22    -3.3636   -0.6975   -6.0374 C.ar     1 ZINC000095930185   -0.0900
23     C23    -3.9602   -1.0225   -7.2405 C.ar     1 ZINC000095930185   -0.0800
24     C24    -3.1866   -1.4798   -8.2978 C.ar     1 ZINC000095930185    0.0400
25     N25    -3.7918   -1.8088   -9.5178 N.3      1 ZINC000095930185   -0.4800
26     C26    -2.8073   -2.3512  -10.4647 C.3      1 ZINC000095930185    0.0100
27     C27    -3.5170   -2.7525  -11.7598 C.3      1 ZINC000095930185   -0.0100
28     N28    -4.1823   -1.5775  -12.3380 N.4      1 ZINC000095930185   -0.5100
29     H29    -3.4965   -0.8619  -12.5267 H        1 ZINC000095930185    0.4300
30     H30    -4.6399   -1.8398  -13.1982 H        1 ZINC000095930185    0.4400
31     C31    -5.1797   -1.0620  -11.3909 C.3      1 ZINC000095930185    0.0000
32     C32    -4.4839   -0.6467  -10.0928 C.3      1 ZINC000095930185    0.0200
33     C33    -1.8102   -1.6111   -8.1463 C.ar     1 ZINC000095930185    0.0800
34     F34    -1.0563   -2.0559   -9.1754 F        1 ZINC000095930185   -0.1300
35     C35    -1.2134   -1.2804   -6.9445 C.ar     1 ZINC000095930185   -0.1600
36     N36    -1.5151   -0.2967   -2.3486 N.ar     1 ZINC000095930185   -0.5900
37     C37    -2.1353   -0.4855   -1.1893 C.ar     1 ZINC000095930185    0.4700
38     H38     0.4518    2.6516   -0.1967 H        1 ZINC000095930185    0.0800
39     H39    -1.0417    2.3366   -1.1123 H        1 ZINC000095930185    0.0600
40     H40    -1.1018    2.5021    0.6590 H        1 ZINC000095930185    0.0600
41     H41     0.3083    0.2704   -0.8733 H        1 ZINC000095930185    0.1000
42     H42     0.2482    0.4360    0.8979 H        1 ZINC000095930185    0.1000
43     H43    -2.8781   -2.7397    3.1150 H        1 ZINC000095930185    0.1400
44     H44    -4.0345   -3.0957    5.2565 H        1 ZINC000095930185    0.1500
45     H45    -6.8064    0.0042    4.2954 H        1 ZINC000095930185    0.1500
46     H46    -5.0161   -1.8865    0.0368 H        1 ZINC000095930185    0.1500
47     H47    -4.8628   -2.0954   -2.4491 H        1 ZINC000095930185    0.1900
48     H48    -0.4954   -0.1149   -4.6529 H        1 ZINC000095930185    0.4300
49     H49    -3.9664   -0.3419   -5.2148 H        1 ZINC000095930185    0.1500
50     H50    -5.0289   -0.9209   -7.3579 H        1 ZINC000095930185    0.1400
51     H51    -2.0554   -1.5926  -10.6821 H        1 ZINC000095930185    0.0800
52     H52    -2.3260   -3.2261  -10.0277 H        1 ZINC000095930185    0.1400
53     H53    -2.7864   -3.1419  -12.4688 H        1 ZINC000095930185    0.1400
54     H54    -4.2593   -3.5210  -11.5442 H        1 ZINC000095930185    0.1400
55     H55    -5.6818   -0.1981  -11.8264 H        1 ZINC000095930185    0.1400
56     H56    -5.9135   -1.8391  -11.1772 H        1 ZINC000095930185    0.1400
57     H57    -5.2257   -0.2780   -9.3844 H        1 ZINC000095930185    0.1300
58     H58    -3.7596    0.1400  -10.3040 H        1 ZINC000095930185    0.0700
59     H59    -0.1447   -1.3817   -6.8261 H        1 ZINC000095930185    0.1500
@<TRIPOS>BOND
1     1     2     1
2     1     38    1
3     1     39    1
4     1     40    1
5     2     3     1
6     2     41    1
7     2     42    1
8     3     37    1
9     3     4     am
10    4     5     2
11    4     6     1
12    6     7     1
13    6     15    2
14    7     13    ar
15    7     8     ar
16    8     9     ar
17    8     43    1
18    9     10    ar
19    9     44    1
20    10    11    1
21    10    12    ar
22    12    13    ar
23    12    45    1
24    13    14    1
25    15    16    1
26    15    46    1
27    16    37    ar
28    16    17    ar
29    17    18    ar
30    17    47    1
31    18    19    ar
32    19    20    1
33    19    36    ar
34    20    21    1
35    20    48    1
36    21    35    ar
37    21    22    ar
38    22    23    ar
39    22    49    1
40    23    24    ar
41    23    50    1
42    24    25    1
43    24    33    ar
44    25    32    1
45    25    26    1
46    26    27    1
47    26    51    1
48    26    52    1
49    27    28    1
50    27    53    1
51    27    54    1
52    28    29    1
53    28    30    1
54    28    31    1
55    31    32    1
56    31    55    1
57    31    56    1
58    32    57    1
59    32    58    1
60    33    34    1
61    33    35    ar
62    35    59    1
63    36    37    ar
@<TRIPOS>SUBSTRUCTURE
1   ZINC000095930185 1     RESIDUE    1   A     ZIN   1
