@<TRIPOS>MOLECULE
ZINC000095554143
  48   52    0    0    0
SMALL
USER_CHARGES
NO_NAME
@<TRIPOS>ATOM
    1 C1       -0.0184     1.5028     0.0103 C.3    1 <0>      -0.1200
    2 C2        0.0021    -0.0041     0.0020 C.ar   1 <0>      -0.0200
    3 C3        0.0061    -0.7072    -1.1902 C.ar   1 <0>      -0.1700
    4 C4        0.0250    -2.0899    -1.1602 C.ar   1 <0>       0.1100
    5 N5        0.0387    -2.7448    -0.0155 N.ar   1 <0>      -0.4900
    6 C6        0.0355    -2.1189     1.1438 C.ar   1 <0>       0.1200
    7 C7        0.0232    -0.7270     1.1980 C.ar   1 <0>      -0.1000
    8 C8        0.0198    -0.0233     2.5046 C.2    1 <0>      -0.0800
    9 C9        1.1619     0.0465     3.2454 C.2    1 <0>       0.1100
   10 N10       1.1692     0.6884     4.4439 N.pl3  1 <0>      -0.3200
   11 C11       0.0337     1.2761     4.9294 C.2    1 <0>       0.2900
   12 N12       0.3095     1.8294     6.1076 N.2    1 <0>      -0.5200
   13 C13       1.5890     1.6248     6.4129 C.2    1 <0>       0.4300
   14 N14       2.2334     2.0584     7.5677 N.pl3  1 <0>      -0.5900
   15 C15       1.5252     2.7815     8.5351 C.2    1 <0>       0.3100
   16 N16       2.0146     3.2500     9.6591 N.2    1 <0>      -0.3300
   17 N17       0.9852     3.9104    10.3420 N.pl3  1 <0>      -0.4700
   18 C18      -0.1353     3.8240     9.5946 C.2    1 <0>       0.0700
   19 C19       0.1682     3.1376     8.4696 C.2    1 <0>      -0.2700
   20 C20       2.1682     0.9019     5.3773 C.2    1 <0>      -0.1100
   21 C21       3.5613     0.4538     5.2910 C.ar   1 <0>       0.5000
   22 N22       4.4183     0.7315     6.2799 N.ar   1 <0>      -0.6100
   23 C23       5.6722     0.3270     6.1999 C.ar   1 <0>       0.4200
   24 C24       6.6349     0.6412     7.3160 C.3    1 <0>      -0.0900
   25 N25       6.0869    -0.3532     5.1445 N.ar   1 <0>      -0.6200
   26 C26       5.2421    -0.6353     4.1539 C.ar   1 <0>       0.6200
   27 N27       5.6800    -1.3457     3.0544 N.pl3  1 <0>      -0.8000
   28 N28       3.9782    -0.2381     4.2270 N.ar   1 <0>      -0.6300
   29 C29      -1.1583     1.2169     4.1812 C.2    1 <0>      -0.1000
   30 C30      -1.1653     0.5800     2.9797 C.2    1 <0>      -0.0600
   31 H31       1.0042     1.8801     0.0026 H      1 <0>       0.0800
   32 H32      -0.5455     1.8639    -0.8728 H      1 <0>       0.0800
   33 H33      -0.5286     1.8543     0.9071 H      1 <0>       0.0800
   34 H34      -0.0057    -0.1818    -2.1338 H      1 <0>       0.1400
   35 H35       0.0282    -2.6417    -2.0885 H      1 <0>       0.1600
   36 H36       0.0468    -2.6901     2.0603 H      1 <0>       0.1600
   37 H37       2.0679    -0.4119     2.8776 H      1 <0>       0.1800
   38 H38       3.1732     1.8596     7.7023 H      1 <0>       0.4400
   39 H39       1.0640     4.3525    11.2018 H      1 <0>       0.4400
   40 H40      -1.1017     4.2342     9.8479 H      1 <0>       0.1800
   41 H41      -0.5136     2.8993     7.6667 H      1 <0>       0.1800
   42 H42       6.6130    -0.1627     8.0518 H      1 <0>       0.1000
   43 H43       7.6424     0.7357     6.9110 H      1 <0>       0.0900
   44 H44       6.3455     1.5779     7.7925 H      1 <0>       0.0900
   45 H45       6.6030    -1.6395     3.0030 H      1 <0>       0.4200
   46 H46       5.0648    -1.5511     2.3332 H      1 <0>       0.4200
   47 H47      -2.0596     1.6780     4.5572 H      1 <0>       0.1600
   48 H48      -2.0732     0.5281     2.3971 H      1 <0>       0.1500
@<TRIPOS>BOND
   1    1    2 1
   2    1   31 1
   3    1   32 1
   4    1   33 1
   5    2    7 ar
   6    2    3 ar
   7    3    4 ar
   8    3   34 1
   9    4    5 ar
  10    4   35 1
  11    5    6 ar
  12    6    7 ar
  13    6   36 1
  14    7    8 1
  15    8   30 1
  16    8    9 2
  17    9   10 1
  18    9   37 1
  19   10   20 1
  20   10   11 1
  21   11   12 2
  22   11   29 1
  23   12   13 1
  24   13   14 1
  25   13   20 2
  26   14   15 1
  27   14   38 1
  28   15   19 1
  29   15   16 2
  30   16   17 1
  31   17   18 1
  32   17   39 1
  33   18   19 2
  34   18   40 1
  35   19   41 1
  36   20   21 1
  37   21   28 ar
  38   21   22 ar
  39   22   23 ar
  40   23   24 1
  41   23   25 ar
  42   24   42 1
  43   24   43 1
  44   24   44 1
  45   25   26 ar
  46   26   27 1
  47   26   28 ar
  48   27   45 1
  49   27   46 1
  50   29   30 2
  51   29   47 1
  52   30   48 1
