@<TRIPOS>MOLECULE
ZINC000009561253
53    57    1     0     0
SMALL
USER_CHARGES
@<TRIPOS>ATOM
1      C1     -0.1720    1.4177   -0.3092 C.3      1 ZINC000009561253   -0.1200
2      C2     -0.1251   -0.0876   -0.2534 C.ar     1 ZINC000009561253   -0.0900
3      C3     -1.1456   -0.8309   -0.8176 C.ar     1 ZINC000009561253   -0.1100
4      C4     -1.1058   -2.2105   -0.7683 C.ar     1 ZINC000009561253   -0.0900
5      C5     -0.0390   -2.8513   -0.1512 C.ar     1 ZINC000009561253    0.0900
6      N6      0.0047   -4.2465   -0.0999 N.3      1 ZINC000009561253   -0.5000
7      C7      1.1347   -4.7668   -0.8811 C.3      1 ZINC000009561253    0.0400
8      C8      1.0432   -6.2949   -0.9499 C.3      1 ZINC000009561253    0.1400
9      N9      0.9408   -6.8190    0.4205 N.pl3    1 ZINC000009561253   -0.6500
10     C10     1.7851   -7.8238    0.8622 C.2      1 ZINC000009561253    0.2200
11     C11     1.2693   -9.0437    1.2614 C.2      1 ZINC000009561253   -0.1400
12     Cl12   -0.4416   -9.3342    1.2153 Cl       1 ZINC000009561253    0.0100
13     C13     2.1490  -10.0424    1.7034 C.2      1 ZINC000009561253    0.5200
14     O14     1.7172  -11.1275    2.0604 O.2      1 ZINC000009561253   -0.4500
15     N15     3.4738   -9.7975    1.7313 N.am     1 ZINC000009561253   -0.3400
16     C16     4.3473  -10.7848    2.1681 C.2      1 ZINC000009561253    0.3300
17     N17     3.9930  -11.9592    2.5586 N.2      1 ZINC000009561253   -0.4500
18     C18     4.9578  -12.8106    2.9544 C.ar     1 ZINC000009561253    0.1000
19     C19     4.8297  -14.1367    3.4208 C.ar     1 ZINC000009561253   -0.0600
20     C20     5.9401  -14.8560    3.7829 C.ar     1 ZINC000009561253   -0.1000
21     C21     7.2055  -14.2936    3.6971 C.ar     1 ZINC000009561253   -0.1000
22     C22     7.3555  -13.0017    3.2450 C.ar     1 ZINC000009561253   -0.0700
23     C23     6.2396  -12.2558    2.8728 C.ar     1 ZINC000009561253   -0.1800
24     S24     6.0945  -10.6106    2.2591 S.3      1 ZINC000009561253    0.1300
25     N25     3.9768   -8.5576    1.3237 N.2      1 ZINC000009561253   -0.2100
26     C26     3.1809   -7.6147    0.9036 C.2      1 ZINC000009561253    0.1100
27     C27    -0.0819   -6.2472    1.3096 C.3      1 ZINC000009561253    0.1400
28     C28     0.0539   -4.7209    1.2895 C.3      1 ZINC000009561253    0.0700
29     H29     1.0051   -4.4345    1.7382 H        1 ZINC000009561253    0.0500
30     C30    -1.0943   -4.0957    2.0841 C.3      1 ZINC000009561253   -0.1500
31     C31     0.9845   -2.1016    0.4145 C.ar     1 ZINC000009561253   -0.1400
32     C32     0.9412   -0.7224    0.3567 C.ar     1 ZINC000009561253   -0.1100
33     H33     0.3191    1.7631   -1.2189 H        1 ZINC000009561253    0.0700
34     H34    -1.2104    1.7491   -0.3086 H        1 ZINC000009561253    0.0700
35     H35     0.3413    1.8296    0.5597 H        1 ZINC000009561253    0.0700
36     H36    -1.9749   -0.3320   -1.2969 H        1 ZINC000009561253    0.1200
37     H37    -1.9033   -2.7904   -1.2088 H        1 ZINC000009561253    0.1300
38     H38     1.1003   -4.3546   -1.8895 H        1 ZINC000009561253    0.0900
39     H39     2.0708   -4.4797   -0.4022 H        1 ZINC000009561253    0.0400
40     H40     0.1597   -6.5836   -1.5193 H        1 ZINC000009561253    0.0800
41     H41     1.9374   -6.6941   -1.4287 H        1 ZINC000009561253    0.0900
42     H42     3.8511  -14.5877    3.4933 H        1 ZINC000009561253    0.1400
43     H43     5.8283  -15.8696    4.1385 H        1 ZINC000009561253    0.1400
44     H44     8.0728  -14.8690    3.9852 H        1 ZINC000009561253    0.1400
45     H45     8.3412  -12.5653    3.1792 H        1 ZINC000009561253    0.1300
46     H46     3.5908   -6.6650    0.5933 H        1 ZINC000009561253    0.2100
47     H47    -1.0735   -6.5312    0.9574 H        1 ZINC000009561253    0.0800
48     H48     0.0685   -6.6148    2.3247 H        1 ZINC000009561253    0.0800
49     H49    -1.0303   -4.4121    3.1252 H        1 ZINC000009561253    0.0600
50     H50    -1.0246   -3.0093    2.0296 H        1 ZINC000009561253    0.0600
51     H51    -2.0461   -4.4202    1.6636 H        1 ZINC000009561253    0.0700
52     H52     1.8151   -2.5967    0.8954 H        1 ZINC000009561253    0.1200
53     H53     1.7365   -0.1389    0.7963 H        1 ZINC000009561253    0.1200
@<TRIPOS>BOND
1     1     2     1
2     1     33    1
3     1     34    1
4     1     35    1
5     2     32    ar
6     2     3     ar
7     3     4     ar
8     3     36    1
9     4     5     ar
10    4     37    1
11    5     6     1
12    5     31    ar
13    6     28    1
14    6     7     1
15    7     8     1
16    7     38    1
17    7     39    1
18    8     9     1
19    8     40    1
20    8     41    1
21    9     10    1
22    9     27    1
23    10    26    1
24    10    11    2
25    11    12    1
26    11    13    1
27    13    14    2
28    13    15    am
29    15    16    1
30    15    25    1
31    16    24    1
32    16    17    2
33    17    18    1
34    18    23    ar
35    18    19    ar
36    19    20    ar
37    19    42    1
38    20    21    ar
39    20    43    1
40    21    22    ar
41    21    44    1
42    22    23    ar
43    22    45    1
44    23    24    1
45    25    26    2
46    26    46    1
47    27    28    1
48    27    47    1
49    27    48    1
50    28    29    1
51    28    30    1
52    30    49    1
53    30    50    1
54    30    51    1
55    31    32    ar
56    31    52    1
57    32    53    1
@<TRIPOS>SUBSTRUCTURE
1   ZINC000009561253 1     RESIDUE    1   A     ZIN   1
