@<TRIPOS>MOLECULE
ZINC000000001091
  22   22    0    0    0
SMALL
USER_CHARGES
NO_NAME
@<TRIPOS>ATOM
    1 C1       -0.0187     1.5258     0.0104 C.3    1 <0>      -0.1500
    2 C2        0.0021    -0.0041     0.0020 C.3    1 <0>       0.0800
    3 O3        0.7043    -0.4851     1.1784 O.3    1 <0>      -0.3600
    4 C4        0.8121    -1.8189     1.3229 C.2    1 <0>       0.6500
    5 O5        0.3326    -2.5608     0.4893 O.2    1 <0>      -0.4500
    6 N6        1.4520    -2.3313     2.3927 N.am   1 <0>      -0.4400
    7 C7        2.0393    -1.6022     3.4207 C.2    1 <0>      -0.0100
    8 C8        2.5648    -2.4646     4.2832 C.2    1 <0>       0.0200
    9 N9        2.3167    -3.7451     3.8121 N.am   1 <0>      -0.4700
   10 C10       2.7249    -4.9940     4.4601 C.3    1 <0>       0.0900
   11 C11       1.6302    -3.6407     2.6573 C.2    1 <0>       0.4600
   12 S12       1.0881    -4.9444     1.6891 S.2    1 <0>      -0.5200
   13 H13       1.0039     1.9031     0.0027 H      1 <0>       0.0700
   14 H14      -0.5459     1.8868    -0.8726 H      1 <0>       0.0900
   15 H15      -0.5289     1.8773     0.9072 H      1 <0>       0.0700
   16 H16      -1.0205    -0.3814     0.0098 H      1 <0>       0.0800
   17 H17       0.5123    -0.3556    -0.8948 H      1 <0>       0.0800
   18 H18       2.0641    -0.5256     3.5030 H      1 <0>       0.2100
   19 H19       3.0927    -2.2130     5.1912 H      1 <0>       0.2100
   20 H20       3.2612    -4.7669     5.3814 H      1 <0>       0.1000
   21 H21       1.8414    -5.5890     4.6913 H      1 <0>       0.0900
   22 H22       3.3757    -5.5553     3.7897 H      1 <0>       0.0900
@<TRIPOS>BOND
   1    1    2 1
   2    1   13 1
   3    1   14 1
   4    1   15 1
   5    2    3 1
   6    2   16 1
   7    2   17 1
   8    3    4 1
   9    4    5 2
  10    4    6 am
  11    6   11 am
  12    6    7 1
  13    7    8 2
  14    7   18 1
  15    8    9 1
  16    8   19 1
  17    9   10 1
  18    9   11 am
  19   10   20 1
  20   10   21 1
  21   10   22 1
  22   11   12 2
