@<TRIPOS>MOLECULE
ZINC000001490073
  65   68    0    0    0
SMALL
USER_CHARGES
NO_NAME
@<TRIPOS>ATOM
    1 C1       -0.3477     3.7370     1.5731 C.3    1 <0>       0.0900
    2 N2        0.1109     2.3485     1.6632 N.pl3  1 <0>      -0.6100
    3 C3        0.1131     1.6603     2.9565 C.3    1 <0>       0.1300
    4 C4       -1.2316     0.9606     3.1641 C.3    1 <0>       0.0400
    5 O5       -1.3878    -0.0707     2.1873 O.3    1 <0>      -0.2900
    6 C6       -2.5372    -0.7944     2.2325 C.ar   1 <0>       0.1200
    7 C7       -3.4976    -0.5138     3.1936 C.ar   1 <0>      -0.2000
    8 C8       -4.6653    -1.2505     3.2372 C.ar   1 <0>      -0.0700
    9 C9       -4.8772    -2.2671     2.3243 C.ar   1 <0>      -0.1100
   10 C10      -6.1518    -3.0696     2.3744 C.3    1 <0>      -0.0700
   11 C11      -7.2092    -2.4030     1.4920 C.3    1 <0>       0.0800
   12 H12      -6.8142    -2.2771     0.4839 H      1 <0>       0.0800
   13 N13      -7.5541    -1.0925     2.0486 N.pl3  1 <0>      -0.6900
   14 C14      -8.0582    -0.0981     1.2216 C.ar   1 <0>       0.2800
   15 C15      -8.3466    -0.3756    -0.1086 C.ar   1 <0>      -0.2000
   16 C16      -8.8477     0.6147    -0.9287 C.ar   1 <0>      -0.0500
   17 C17      -9.0674     1.8912    -0.4351 C.ar   1 <0>      -0.2000
   18 C18      -8.7883     2.1864     0.8810 C.ar   1 <0>      -0.0400
   19 C19      -8.2852     1.1933     1.7269 C.ar   1 <0>      -0.2500
   20 C20      -7.9844     1.5018     3.1356 C.2    1 <0>       0.4600
   21 O21      -6.9959     2.1512     3.4182 O.2    1 <0>      -0.4500
   22 C22      -8.8841     1.0218     4.2056 C.ar   1 <0>      -0.1700
   23 C23     -10.0751     0.3693     3.8803 C.ar   1 <0>      -0.0400
   24 C24     -10.9099    -0.0764     4.8839 C.ar   1 <0>      -0.1300
   25 C25     -10.5694     0.1217     6.2104 C.ar   1 <0>      -0.0900
   26 C26      -9.3906     0.7675     6.5398 C.ar   1 <0>      -0.1400
   27 C27      -8.5441     1.2136     5.5464 C.ar   1 <0>      -0.0700
   28 C28      -8.4418    -3.2687     1.4441 C.2    1 <0>       0.4900
   29 O29      -9.3270    -3.1151     2.2684 O.co2  1 <0>      -0.6800
   30 O30      -8.5539    -4.1225     0.5811 O.co2  1 <0>      -0.7000
   31 C31      -3.9219    -2.5484     1.3652 C.ar   1 <0>      -0.0800
   32 C32      -2.7547    -1.8111     1.3141 C.ar   1 <0>      -0.1500
   33 C33       0.5439     1.6841     0.5216 C.ar   1 <0>       0.4100
   34 C34       0.6437     2.3747    -0.6817 C.ar   1 <0>      -0.2400
   35 C35       1.0765     1.7013    -1.8100 C.ar   1 <0>      -0.0400
   36 C36       1.3959     0.3550    -1.6964 C.ar   1 <0>      -0.2400
   37 C37       1.2735    -0.2680    -0.4703 C.ar   1 <0>       0.1500
   38 N38       0.8629     0.4007     0.5904 N.ar   1 <0>      -0.5200
   39 H39       0.4971     4.4091     1.7236 H      1 <0>       0.0500
   40 H40      -0.7814     3.9132     0.5888 H      1 <0>       0.0700
   41 H41      -1.1000     3.9216     2.3400 H      1 <0>       0.0700
   42 H42       0.9138     0.9209     2.9732 H      1 <0>       0.0900
   43 H43       0.2720     2.3860     3.7540 H      1 <0>       0.0900
   44 H44      -1.2635     0.5235     4.1622 H      1 <0>       0.0600
   45 H45      -2.0386     1.6857     3.0591 H      1 <0>       0.0600
   46 H46      -3.3322     0.2797     3.9074 H      1 <0>       0.1200
   47 H47      -5.4133    -1.0325     3.9852 H      1 <0>       0.1100
   48 H48      -5.9600    -4.0794     2.0117 H      1 <0>       0.0900
   49 H49      -6.5124    -3.1150     3.4021 H      1 <0>       0.0700
   50 H50      -7.4302    -0.9196     2.9950 H      1 <0>       0.3900
   51 H51      -8.1781    -1.3674    -0.5015 H      1 <0>       0.1300
   52 H52      -9.0699     0.3937    -1.9623 H      1 <0>       0.1200
   53 H53      -9.4592     2.6587    -1.0861 H      1 <0>       0.1200
   54 H54      -8.9612     3.1829     1.2600 H      1 <0>       0.1100
   55 H55     -10.3422     0.2144     2.8454 H      1 <0>       0.1300
   56 H56     -11.8315    -0.5809     4.6338 H      1 <0>       0.1300
   57 H57     -11.2267    -0.2290     6.9923 H      1 <0>       0.1200
   58 H58      -9.1309     0.9188     7.5772 H      1 <0>       0.1200
   59 H59      -7.6243     1.7172     5.8048 H      1 <0>       0.1300
   60 H60      -4.0899    -3.3428     0.6530 H      1 <0>       0.1300
   61 H61      -2.0088    -2.0312     0.5648 H      1 <0>       0.1200
   62 H62       0.3866     3.4223    -0.7345 H      1 <0>       0.1300
   63 H63       1.1635     2.2113    -2.7580 H      1 <0>       0.1300
   64 H64       1.7364    -0.1995    -2.5583 H      1 <0>       0.1300
   65 H65       1.5209    -1.3151    -0.3774 H      1 <0>       0.1500
@<TRIPOS>BOND
   1    1    2 1
   2    1   39 1
   3    1   40 1
   4    1   41 1
   5    2    3 1
   6    2   33 1
   7    3    4 1
   8    3   42 1
   9    3   43 1
  10    4    5 1
  11    4   44 1
  12    4   45 1
  13    5    6 1
  14    6   32 ar
  15    6    7 ar
  16    7    8 ar
  17    7   46 1
  18    8    9 ar
  19    8   47 1
  20    9   10 1
  21    9   31 ar
  22   10   11 1
  23   10   48 1
  24   10   49 1
  25   11   12 1
  26   11   13 1
  27   11   28 1
  28   13   14 1
  29   13   50 1
  30   14   19 ar
  31   14   15 ar
  32   15   16 ar
  33   15   51 1
  34   16   17 ar
  35   16   52 1
  36   17   18 ar
  37   17   53 1
  38   18   19 ar
  39   18   54 1
  40   19   20 1
  41   20   21 2
  42   20   22 1
  43   22   27 ar
  44   22   23 ar
  45   23   24 ar
  46   23   55 1
  47   24   25 ar
  48   24   56 1
  49   25   26 ar
  50   25   57 1
  51   26   27 ar
  52   26   58 1
  53   27   59 1
  54   28   29 ar
  55   28   30 ar
  56   31   32 ar
  57   31   60 1
  58   32   61 1
  59   33   38 ar
  60   33   34 ar
  61   34   35 ar
  62   34   62 1
  63   35   36 ar
  64   35   63 1
  65   36   37 ar
  66   36   64 1
  67   37   38 ar
  68   37   65 1
