@<TRIPOS>MOLECULE
ZINC000000066290
26    27    1     0     0
SMALL
USER_CHARGES
@<TRIPOS>ATOM
1      C1     -0.0225    1.8057    0.0120 C.3      1 ZINC000000066290   -0.1600
2      S2      0.0021   -0.0041    0.0020 S.3      1 ZINC000000066290    0.0800
3      C3      0.8594   -0.2901   -1.5105 C.2      1 ZINC000000066290    0.1400
4      N4      1.3187    0.6282   -2.3291 N.2      1 ZINC000000066290   -0.2800
5      N5      1.8899    0.0603   -3.3324 N.2      1 ZINC000000066290   -0.2500
6      C6      1.8184   -1.2413   -3.1952 C.2      1 ZINC000000066290    0.2100
7      C7      2.3542   -2.2503   -4.1322 C.ar     1 ZINC000000066290   -0.0500
8      C8      2.2050   -3.6170   -3.8682 C.ar     1 ZINC000000066290   -0.0300
9      C9      2.7246   -4.5212   -4.7780 C.ar     1 ZINC000000066290   -0.1300
10     C10     3.3683   -4.0505   -5.9081 C.ar     1 ZINC000000066290    0.0700
11     C11     3.9353   -5.0323   -6.9010 C.3      1 ZINC000000066290    0.5200
12     F12     2.9649   -5.3372   -7.8614 F        1 ZINC000000066290   -0.1700
13     F13     5.0516   -4.4689   -7.5284 F        1 ZINC000000066290   -0.1600
14     F14     4.3158   -6.2021   -6.2348 F        1 ZINC000000066290   -0.1700
15     N15     3.4939   -2.7562   -6.1315 N.ar     1 ZINC000000066290   -0.4400
16     C16     3.0126   -1.8569   -5.2988 C.ar     1 ZINC000000066290    0.1900
17     C17     3.1833   -0.3907   -5.6022 C.3      1 ZINC000000066290   -0.1300
18     O18     1.1690   -1.4906   -2.0365 O.3      1 ZINC000000066290   -0.2000
19     H19     1.0001    2.1830    0.0042 H        1 ZINC000000066290    0.1000
20     H20    -0.5497    2.1668   -0.8711 H        1 ZINC000000066290    0.1000
21     H21    -0.5327    2.1573    0.9088 H        1 ZINC000000066290    0.1300
22     H22     1.6979   -3.9570   -2.9774 H        1 ZINC000000066290    0.1600
23     H23     2.6286   -5.5833   -4.6072 H        1 ZINC000000066290    0.1600
24     H24     2.3336   -0.0395   -6.1877 H        1 ZINC000000066290    0.0900
25     H25     3.2377    0.1696   -4.6688 H        1 ZINC000000066290    0.1100
26     H26     4.1019   -0.2416   -6.1696 H        1 ZINC000000066290    0.0900
@<TRIPOS>BOND
1     1     2     1
2     1     19    1
3     1     20    1
4     1     21    1
5     2     3     1
6     3     18    1
7     3     4     2
8     4     5     1
9     5     6     2
10    6     7     1
11    6     18    1
12    7     16    ar
13    7     8     ar
14    8     9     ar
15    8     22    1
16    9     10    ar
17    9     23    1
18    10    11    1
19    10    15    ar
20    11    12    1
21    11    13    1
22    11    14    1
23    15    16    ar
24    16    17    1
25    17    24    1
26    17    25    1
27    17    26    1
@<TRIPOS>SUBSTRUCTURE
1   ZINC000000066290 1     RESIDUE    1   A     ZIN   1
