@<TRIPOS>MOLECULE
ZINC000028822457
46    49    1     0     0
SMALL
USER_CHARGES
@<TRIPOS>ATOM
1      C1     -0.3385    1.4961    0.0463 C.3      1 ZINC000028822457   -0.1100
2      C2     -0.2989   -0.0104    0.0359 C.ar     1 ZINC000028822457   -0.1200
3      C3     -0.5439   -0.6984   -1.1426 C.ar     1 ZINC000028822457   -0.0500
4      C4     -0.5116   -2.0822   -1.1705 C.ar     1 ZINC000028822457    0.1400
5      N5     -0.7600   -2.7655   -2.3653 N.am     1 ZINC000028822457   -0.9400
6      C6      0.2252   -3.0744   -3.4127 C.3      1 ZINC000028822457    0.0800
7      C7     -0.1739   -4.3664   -4.1508 C.3      1 ZINC000028822457   -0.1300
8      C8     -1.6980   -4.2014   -4.4176 C.3      1 ZINC000028822457   -0.6000
9      S9     -2.2283   -3.3872   -2.8619 S.o2     1 ZINC000028822457    2.5600
10     O10    -2.5851   -4.3453   -1.8750 O.2      1 ZINC000028822457   -0.9300
11     O11    -3.0360   -2.2484   -3.1261 O.2      1 ZINC000028822457   -0.9500
12     C12    -0.2300   -2.7938   -0.0026 C.ar     1 ZINC000028822457    0.1500
13     O13    -0.1936   -4.1428   -0.0095 O.3      1 ZINC000028822457   -0.1800
14     C14     0.0741   -4.8608    1.0937 C.2      1 ZINC000028822457    0.2100
15     C15     0.0942   -6.3319    0.9982 C.ar     1 ZINC000028822457   -0.2100
16     C16    -0.5885   -7.1050    1.9417 C.ar     1 ZINC000028822457    0.0100
17     C17    -0.5670   -8.4792    1.8485 C.ar     1 ZINC000028822457   -0.2500
18     C18     0.1322   -9.0970    0.8190 C.ar     1 ZINC000028822457    0.3200
19     O19     0.1507  -10.4518    0.7311 O.3      1 ZINC000028822457   -0.6800
20     C20     0.8125   -8.3323   -0.1213 C.ar     1 ZINC000028822457   -0.3400
21     C21     1.5686   -9.0083   -1.2359 C.3      1 ZINC000028822457    0.5300
22     F22     2.1663   -8.0391   -2.0487 F        1 ZINC000028822457   -0.2000
23     F23     2.5573   -9.8363   -0.6935 F        1 ZINC000028822457   -0.1800
24     F24     0.6843   -9.7770   -2.0002 F        1 ZINC000028822457   -0.1800
25     C25     0.7913   -6.9578   -0.0397 C.ar     1 ZINC000028822457    0.0200
26     C26     0.3305   -4.2710    2.3084 C.2      1 ZINC000028822457   -0.1100
27     O27     0.5982   -5.0365    3.4013 O.3      1 ZINC000028822457   -0.4500
28     C28     0.3138   -2.8581    2.4111 C.2      1 ZINC000028822457    0.4000
29     O29     0.5367   -2.2969    3.4717 O.2      1 ZINC000028822457   -0.4900
30     C30     0.0168   -2.0913    1.1859 C.ar     1 ZINC000028822457   -0.2100
31     C31    -0.0139   -0.6962    1.1963 C.ar     1 ZINC000028822457   -0.0200
32     H32     0.6533    1.8872   -0.1807 H        1 ZINC000028822457    0.0700
33     H33    -1.0475    1.8461   -0.7040 H        1 ZINC000028822457    0.0700
34     H34    -0.6499    1.8446    1.0310 H        1 ZINC000028822457    0.0700
35     H35    -0.7623   -0.1499   -2.0469 H        1 ZINC000028822457    0.1500
36     H36     0.2664   -2.2498   -4.1243 H        1 ZINC000028822457    0.0800
37     H37     1.2067   -3.2067   -2.9576 H        1 ZINC000028822457    0.1000
38     H38     0.3706   -4.4519   -5.0912 H        1 ZINC000028822457    0.1100
39     H39     0.0108   -5.2373   -3.5219 H        1 ZINC000028822457    0.1000
40     H40    -1.8794   -3.5625   -5.2819 H        1 ZINC000028822457    0.1400
41     H41    -2.1837   -5.1698   -4.5377 H        1 ZINC000028822457    0.1500
42     H42    -1.1317   -6.6256    2.7427 H        1 ZINC000028822457    0.1100
43     H43    -1.0942   -9.0773    2.5771 H        1 ZINC000028822457    0.1100
44     H44     1.3202   -6.3644   -0.7709 H        1 ZINC000028822457    0.1100
45     H45     0.7648   -4.5277    4.2066 H        1 ZINC000028822457    0.3900
46     H46     0.1815   -0.1563    2.1110 H        1 ZINC000028822457    0.1400
@<TRIPOS>BOND
1     1     2     1
2     1     32    1
3     1     33    1
4     1     34    1
5     2     31    ar
6     2     3     ar
7     3     4     ar
8     3     35    1
9     4     5     1
10    4     12    ar
11    5     9     am
12    5     6     1
13    6     7     1
14    6     36    1
15    6     37    1
16    7     8     1
17    7     38    1
18    7     39    1
19    8     9     1
20    8     40    1
21    8     41    1
22    9     10    2
23    9     11    2
24    12    30    ar
25    12    13    1
26    13    14    1
27    14    15    1
28    14    26    2
29    15    25    ar
30    15    16    ar
31    16    17    ar
32    16    42    1
33    17    18    ar
34    17    43    1
35    18    19    1
36    18    20    ar
37    20    21    1
38    20    25    ar
39    21    22    1
40    21    23    1
41    21    24    1
42    25    44    1
43    26    27    1
44    26    28    1
45    27    45    1
46    28    29    2
47    28    30    1
48    30    31    ar
49    31    46    1
@<TRIPOS>SUBSTRUCTURE
1   ZINC000028822457 1     RESIDUE    1   A     ZIN   1
