@<TRIPOS>MOLECULE
ZINC000000899915
33    35    1     0     0
SMALL
USER_CHARGES
@<TRIPOS>ATOM
1      C1     -0.0173    1.4248    0.0099 C.3      1 ZINC000000899915    0.0700
2      O2      0.0021   -0.0041    0.0020 O.3      1 ZINC000000899915   -0.3200
3      C3      0.6272   -0.6197    1.0437 C.2      1 ZINC000000899915   -0.1900
4      C4      1.1937    0.1291    2.0362 C.2      1 ZINC000000899915    0.2700
5      O5      1.1340    1.4851    1.9855 O.3      1 ZINC000000899915   -0.6600
6      C6      1.8410   -0.5115    3.1148 C.2      1 ZINC000000899915   -0.2100
7      C7      2.4325    0.2358    4.1507 C.2      1 ZINC000000899915    0.2700
8      O8      2.3965    1.5853    4.1405 O.3      1 ZINC000000899915   -0.3900
9      C9      3.0648   -0.4662    5.2023 C.2      1 ZINC000000899915   -0.2600
10     C10     3.7021    0.2778    6.3172 C.ar     1 ZINC000000899915   -0.0500
11     C11     2.9220    1.0431    7.1818 C.ar     1 ZINC000000899915   -0.0900
12     C12     3.5171    1.7335    8.2171 C.ar     1 ZINC000000899915   -0.1400
13     C13     4.8916    1.6665    8.3981 C.ar     1 ZINC000000899915    0.1100
14     O14     5.4752    2.3474    9.4193 O.3      1 ZINC000000899915   -0.5000
15     C15     5.6713    0.9049    7.5386 C.ar     1 ZINC000000899915   -0.1400
16     C16     5.0811    0.2077    6.5050 C.ar     1 ZINC000000899915   -0.0800
17     C17     3.0865   -1.8299    5.1886 C.2      1 ZINC000000899915    0.1600
18     O18     2.5227   -2.5315    4.2007 O.3      1 ZINC000000899915   -0.2000
19     C19     1.9030   -1.9240    3.1680 C.2      1 ZINC000000899915    0.1300
20     C20     1.3264   -2.6694    2.1577 C.2      1 ZINC000000899915   -0.2300
21     C21     0.6822   -2.0256    1.0969 C.2      1 ZINC000000899915    0.3400
22     O22     0.1260   -2.7482    0.1222 O.2      1 ZINC000000899915   -0.6400
23     H23     1.0053    1.8021    0.0021 H        1 ZINC000000899915    0.0500
24     H24    -0.5445    1.7859   -0.8732 H        1 ZINC000000899915    0.0400
25     H25    -0.5275    1.7763    0.9067 H        1 ZINC000000899915    0.0500
26     H26     2.8328    1.9962    4.8994 H        1 ZINC000000899915    0.3800
27     H27     1.8525    1.0959    7.0411 H        1 ZINC000000899915    0.1300
28     H28     2.9130    2.3271    8.8872 H        1 ZINC000000899915    0.1300
29     H29     5.5404    1.8431   10.2418 H        1 ZINC000000899915    0.3900
30     H30     6.7406    0.8546    7.6819 H        1 ZINC000000899915    0.1300
31     H31     5.6882   -0.3849    5.8367 H        1 ZINC000000899915    0.1300
32     H32     3.5722   -2.3564    5.9968 H        1 ZINC000000899915    0.2000
33     H33     1.3694   -3.7481    2.1896 H        1 ZINC000000899915    0.1300
@<TRIPOS>BOND
1     1     2     1
2     1     23    1
3     1     24    1
4     1     25    1
5     2     3     1
6     3     21    1
7     3     4     2
8     4     5     1
9     4     6     1
10    6     19    1
11    6     7     2
12    7     8     1
13    7     9     1
14    8     26    1
15    9     10    1
16    9     17    2
17    10    16    ar
18    10    11    ar
19    11    12    ar
20    11    27    1
21    12    13    ar
22    12    28    1
23    13    14    1
24    13    15    ar
25    14    29    1
26    15    16    ar
27    15    30    1
28    16    31    1
29    17    18    1
30    17    32    1
31    18    19    1
32    19    20    2
33    20    21    1
34    20    33    1
35    21    22    2
@<TRIPOS>SUBSTRUCTURE
1   ZINC000000899915 1     RESIDUE    1   A     ZIN   1
