@<TRIPOS>MOLECULE
ZINC000049019448
65    69    1     0     0
SMALL
USER_CHARGES
@<TRIPOS>ATOM
1      C1     -0.2404    1.3991    0.1286 C.3      1 ZINC000049019448    0.0200
2      O2     -0.1904   -0.0288    0.1060 O.3      1 ZINC000049019448   -0.3100
3      C3      0.4596   -0.6393    1.1303 C.ar     1 ZINC000049019448    0.1600
4      C4      1.0325    0.1232    2.1398 C.ar     1 ZINC000049019448   -0.2100
5      C5      1.6929   -0.4933    3.1810 C.ar     1 ZINC000049019448   -0.0500
6      C6      1.7851   -1.8845    3.2201 C.ar     1 ZINC000049019448   -0.1100
7      C7      2.4937   -2.5504    4.3378 C.ar     1 ZINC000049019448    0.2700
8      C8      2.9692   -1.7768    5.4044 C.ar     1 ZINC000049019448   -0.2000
9      C9      3.6243   -2.3802    6.4418 C.ar     1 ZINC000049019448    0.0100
10     C10     3.7970   -3.7704    6.3965 C.ar     1 ZINC000049019448   -0.2300
11     C11     3.2936   -4.5001    5.2905 C.ar     1 ZINC000049019448    0.3900
12     N12     2.6582   -3.8631    4.3083 N.ar     1 ZINC000049019448   -0.4800
13     N13     3.4694   -5.8295    5.2675 N.ar     1 ZINC000049019448   -0.5400
14     C14     4.0975   -6.4400    6.2549 C.ar     1 ZINC000049019448    0.5400
15     N15     4.2566   -7.8111    6.1897 N.3      1 ZINC000049019448   -0.4600
16     C16     3.6873   -8.4645    7.3772 C.3      1 ZINC000049019448    0.0400
17     C17     3.9376   -9.9725    7.2925 C.3      1 ZINC000049019448    0.0900
18     H18     5.0105  -10.1647    7.3062 H        1 ZINC000049019448    0.0700
19     C19     3.2789  -10.6676    8.4858 C.3      1 ZINC000049019448   -0.1400
20     O20     3.3777  -10.4761    6.0767 O.3      1 ZINC000049019448   -0.3800
21     C21     3.9101   -9.8620    4.8999 C.3      1 ZINC000049019448    0.0900
22     H22     4.9821  -10.0510    4.8440 H        1 ZINC000049019448    0.0700
23     C23     3.2233  -10.4457    3.6636 C.3      1 ZINC000049019448   -0.1400
24     C24     3.6595   -8.3529    4.9604 C.3      1 ZINC000049019448    0.0400
25     N25     4.5843   -5.7925    7.3094 N.ar     1 ZINC000049019448   -0.5700
26     C26     4.4624   -4.4775    7.4269 C.ar     1 ZINC000049019448    0.4300
27     N27     4.9700   -3.8160    8.5240 N.3      1 ZINC000049019448   -0.4800
28     C28     6.3798   -3.4549    8.3157 C.3      1 ZINC000049019448    0.0200
29     C29     6.8852   -2.6718    9.5303 C.3      1 ZINC000049019448    0.0700
30     O30     6.6963   -3.4576   10.7102 O.3      1 ZINC000049019448   -0.3800
31     C31     5.3345   -3.8266   10.9441 C.3      1 ZINC000049019448    0.0600
32     C32     4.8134   -4.6214    9.7439 C.3      1 ZINC000049019448    0.0200
33     C33     1.2081   -2.6476    2.2046 C.ar     1 ZINC000049019448    0.0000
34     C34     0.5451   -2.0253    1.1691 C.ar     1 ZINC000049019448   -0.1300
35     C35    -0.0785   -2.8487    0.0717 C.3      1 ZINC000049019448    0.1300
36     O36     0.1513   -4.2357    0.3278 O.3      1 ZINC000049019448   -0.5700
37     H37     0.7736    1.7985    0.1114 H        1 ZINC000049019448    0.0600
38     H38    -0.7868    1.7574   -0.7439 H        1 ZINC000049019448    0.1000
39     H39    -0.7462    1.7307    1.0354 H        1 ZINC000049019448    0.0600
40     H40     0.9608    1.2004    2.1090 H        1 ZINC000049019448    0.1400
41     H41     2.1388    0.1002    3.9654 H        1 ZINC000049019448    0.1300
42     H42     2.8191   -0.7073    5.4071 H        1 ZINC000049019448    0.1500
43     H43     3.9987   -1.8014    7.2732 H        1 ZINC000049019448    0.1500
44     H44     4.1618   -8.0666    8.2742 H        1 ZINC000049019448    0.1000
45     H45     2.6146   -8.2753    7.4176 H        1 ZINC000049019448    0.0600
46     H46     2.2059  -10.4763    8.4707 H        1 ZINC000049019448    0.0600
47     H47     3.4574  -11.7411    8.4249 H        1 ZINC000049019448    0.0700
48     H48     3.7040  -10.2805    9.4118 H        1 ZINC000049019448    0.0700
49     H49     2.1515  -10.2551    3.7194 H        1 ZINC000049019448    0.0700
50     H50     3.6295   -9.9773    2.7671 H        1 ZINC000049019448    0.0800
51     H51     3.3995  -11.5206    3.6236 H        1 ZINC000049019448    0.0700
52     H52     2.5864   -8.1619    4.9622 H        1 ZINC000049019448    0.0700
53     H53     4.1137   -7.8735    4.0932 H        1 ZINC000049019448    0.1000
54     H54     6.9735   -4.3609    8.1940 H        1 ZINC000049019448    0.0600
55     H55     6.4692   -2.8376    7.4218 H        1 ZINC000049019448    0.0900
56     H56     7.9454   -2.4513    9.4058 H        1 ZINC000049019448    0.1100
57     H57     6.3272   -1.7398    9.6204 H        1 ZINC000049019448    0.0700
58     H58     5.2731   -4.4414   11.8421 H        1 ZINC000049019448    0.1100
59     H59     4.7313   -2.9283   11.0754 H        1 ZINC000049019448    0.0600
60     H60     3.7593   -4.8558    9.8924 H        1 ZINC000049019448    0.0900
61     H61     5.3820   -5.5461    9.6450 H        1 ZINC000049019448    0.0700
62     H62     1.2778   -3.7250    2.2319 H        1 ZINC000049019448    0.1600
63     H63    -1.1512   -2.6581    0.0392 H        1 ZINC000049019448    0.0600
64     H64     0.3680   -2.5771   -0.8848 H        1 ZINC000049019448    0.0600
65     H65    -0.2234   -4.8263   -0.3399 H        1 ZINC000049019448    0.3900
@<TRIPOS>BOND
1     1     2     1
2     1     37    1
3     1     38    1
4     1     39    1
5     2     3     1
6     3     34    ar
7     3     4     ar
8     4     5     ar
9     4     40    1
10    5     6     ar
11    5     41    1
12    6     7     1
13    6     33    ar
14    7     12    ar
15    7     8     ar
16    8     9     ar
17    8     42    1
18    9     10    ar
19    9     43    1
20    10    26    ar
21    10    11    ar
22    11    12    ar
23    11    13    ar
24    13    14    ar
25    14    15    1
26    14    25    ar
27    15    24    1
28    15    16    1
29    16    17    1
30    16    44    1
31    16    45    1
32    17    18    1
33    17    19    1
34    17    20    1
35    19    46    1
36    19    47    1
37    19    48    1
38    20    21    1
39    21    22    1
40    21    23    1
41    21    24    1
42    23    49    1
43    23    50    1
44    23    51    1
45    24    52    1
46    24    53    1
47    25    26    ar
48    26    27    1
49    27    32    1
50    27    28    1
51    28    29    1
52    28    54    1
53    28    55    1
54    29    30    1
55    29    56    1
56    29    57    1
57    30    31    1
58    31    32    1
59    31    58    1
60    31    59    1
61    32    60    1
62    32    61    1
63    33    34    ar
64    33    62    1
65    34    35    1
66    35    36    1
67    35    63    1
68    35    64    1
69    36    65    1
@<TRIPOS>SUBSTRUCTURE
1   ZINC000049019448 1     RESIDUE    1   A     ZIN   1
