@<TRIPOS>MOLECULE
ZINC000020827202
43    47    1     0     0
SMALL
USER_CHARGES
@<TRIPOS>ATOM
1      N1     -0.0179    1.3786    0.1267 N.pl3    1 ZINC000020827202   -0.8300
2      C2      0.0013   -0.0066    0.0720 C.ar     1 ZINC000020827202    0.5000
3      N3     -1.1319   -0.6950    0.0400 N.ar     1 ZINC000020827202   -0.5700
4      C4     -1.1203   -2.0143   -0.0125 C.ar     1 ZINC000020827202    0.3500
5      N5     -0.0056   -2.7034   -0.0353 N.ar     1 ZINC000020827202   -0.5300
6      C6      1.1949   -2.0884   -0.0063 C.ar     1 ZINC000020827202    0.2300
7      C7      1.2247   -0.7045    0.0436 C.ar     1 ZINC000020827202   -0.3100
8      S8      2.8766   -0.1160    0.0752 S.3      1 ZINC000020827202    0.1800
9      C9      3.5504   -1.7385    0.0202 C.ar     1 ZINC000020827202    0.1000
10     C10     2.5365   -2.6862   -0.0261 C.ar     1 ZINC000020827202   -0.1300
11     C11     2.8812   -4.0593   -0.0774 C.ar     1 ZINC000020827202    0.0400
12     C12     4.1927   -4.4098   -0.0806 C.ar     1 ZINC000020827202   -0.1100
13     C13     4.6520   -5.8423   -0.1427 C.3      1 ZINC000020827202   -0.0600
14     C14     3.5127   -6.7865    0.2380 C.3      1 ZINC000020827202   -0.1200
15     C15     2.2796   -6.4201   -0.5964 C.3      1 ZINC000020827202   -0.1200
16     C16     1.7622   -5.0630   -0.1209 C.3      1 ZINC000020827202   -0.0800
17     C17     5.1656   -3.4034   -0.0280 C.ar     1 ZINC000020827202    0.3500
18     N18     6.5089   -3.7538   -0.0256 N.3      1 ZINC000020827202   -0.4800
19     C19     7.0222   -3.8637    1.3476 C.3      1 ZINC000020827202    0.0200
20     C20     8.4864   -4.3088    1.3052 C.3      1 ZINC000020827202    0.0700
21     O21     9.2388   -3.3812    0.5185 O.3      1 ZINC000020827202   -0.3800
22     C22     8.7665   -3.2499   -0.8250 C.3      1 ZINC000020827202    0.0600
23     C23     7.3051   -2.7940   -0.8042 C.3      1 ZINC000020827202    0.0200
24     N24     4.8297   -2.1313    0.0149 N.ar     1 ZINC000020827202   -0.4900
25     H25     0.8154    1.8748    0.1458 H        1 ZINC000020827202    0.4100
26     H26    -0.8645    1.8518    0.1419 H        1 ZINC000020827202    0.4200
27     H27    -2.0613   -2.5437   -0.0371 H        1 ZINC000020827202    0.2100
28     H28     4.9846   -6.0699   -1.1554 H        1 ZINC000020827202    0.0800
29     H29     5.4828   -5.9840    0.5485 H        1 ZINC000020827202    0.0800
30     H30     3.8043   -7.8157    0.0285 H        1 ZINC000020827202    0.0700
31     H31     3.2839   -6.6759    1.2980 H        1 ZINC000020827202    0.0700
32     H32     2.5536   -6.3600   -1.6497 H        1 ZINC000020827202    0.0700
33     H33     1.5063   -7.1761   -0.4603 H        1 ZINC000020827202    0.0700
34     H34     1.3347   -5.1696    0.8761 H        1 ZINC000020827202    0.0900
35     H35     0.9897   -4.7121   -0.8052 H        1 ZINC000020827202    0.1000
36     H36     6.9505   -2.8947    1.8416 H        1 ZINC000020827202    0.0600
37     H37     6.4344   -4.5981    1.8982 H        1 ZINC000020827202    0.0900
38     H38     8.8879   -4.3365    2.3182 H        1 ZINC000020827202    0.1000
39     H39     8.5524   -5.3014    0.8596 H        1 ZINC000020827202    0.0600
40     H40     9.3705   -2.5117   -1.3526 H        1 ZINC000020827202    0.1000
41     H41     8.8406   -4.2116   -1.3325 H        1 ZINC000020827202    0.0600
42     H42     6.9237   -2.7476   -1.8242 H        1 ZINC000020827202    0.0900
43     H43     7.2379   -1.8080   -0.3445 H        1 ZINC000020827202    0.0700
@<TRIPOS>BOND
1     1     2     1
2     1     25    1
3     1     26    1
4     2     7     ar
5     2     3     ar
6     3     4     ar
7     4     5     ar
8     4     27    1
9     5     6     ar
10    6     10    1
11    6     7     ar
12    7     8     1
13    8     9     1
14    9     24    ar
15    9     10    ar
16    10    11    ar
17    11    16    1
18    11    12    ar
19    12    13    1
20    12    17    ar
21    13    14    1
22    13    28    1
23    13    29    1
24    14    15    1
25    14    30    1
26    14    31    1
27    15    16    1
28    15    32    1
29    15    33    1
30    16    34    1
31    16    35    1
32    17    18    1
33    17    24    ar
34    18    23    1
35    18    19    1
36    19    20    1
37    19    36    1
38    19    37    1
39    20    21    1
40    20    38    1
41    20    39    1
42    21    22    1
43    22    23    1
44    22    40    1
45    22    41    1
46    23    42    1
47    23    43    1
@<TRIPOS>SUBSTRUCTURE
1   ZINC000020827202 1     RESIDUE    1   A     ZIN   1
