@<TRIPOS>MOLECULE
ZINC000008887945
  29   30    0    0    0
SMALL
USER_CHARGES
NO_NAME
@<TRIPOS>ATOM
    1 C1       -0.0187     1.5258     0.0104 C.3    1 <0>      -0.1500
    2 C2        0.0021    -0.0041     0.0020 C.3    1 <0>       0.0600
    3 O3        0.7043    -0.4851     1.1784 O.3    1 <0>      -0.3400
    4 C4        0.8122    -1.8210     1.3231 C.2    1 <0>       0.5300
    5 O5        0.3323    -2.5635     0.4888 O.2    1 <0>      -0.5700
    6 C6        1.5101    -2.3797     2.4897 C.2    1 <0>      -0.4500
    7 C7        1.6323    -3.7457     2.6465 C.2    1 <0>       0.2500
    8 N8        2.2614    -4.2901     3.6958 N.pl3  1 <0>      -0.6200
    9 C9        2.8339    -3.5358     4.6972 C.ar   1 <0>       0.1900
   10 C10       3.4773    -4.1523     5.7670 C.ar   1 <0>      -0.1500
   11 C11       4.0460    -3.3871     6.7617 C.ar   1 <0>      -0.0900
   12 C12       3.9860    -2.0019     6.7124 C.ar   1 <0>      -0.1700
   13 C13       4.6147    -1.1842     7.8111 C.3    1 <0>      -0.1000
   14 C14       3.3545    -1.3707     5.6634 C.ar   1 <0>      -0.0400
   15 C15       2.7748    -2.1325     4.6493 C.ar   1 <0>      -0.2300
   16 C16       2.0957    -1.4921     3.5074 C.2    1 <0>       0.4200
   17 O17       2.0192    -0.2797     3.4125 O.2    1 <0>      -0.5300
   18 H18       1.0039     1.9031     0.0027 H      1 <0>       0.0600
   19 H19      -0.5459     1.8868    -0.8726 H      1 <0>       0.0700
   20 H20      -0.5289     1.8773     0.9072 H      1 <0>       0.0600
   21 H21      -1.0205    -0.3814     0.0098 H      1 <0>       0.0600
   22 H22       0.5123    -0.3556    -0.8948 H      1 <0>       0.0600
   23 H23       1.2059    -4.3971     1.8980 H      1 <0>       0.1400
   24 H24       3.5303    -5.2298     5.8173 H      1 <0>       0.1200
   25 H25       4.5438    -3.8710     7.5891 H      1 <0>       0.1100
   26 H26       5.6516    -0.9672     7.5545 H      1 <0>       0.0600
   27 H27       4.0661    -0.2496     7.9278 H      1 <0>       0.0600
   28 H28       4.5812    -1.7443     8.7456 H      1 <0>       0.0600
   29 H29       3.3086    -0.2923     5.6265 H      1 <0>       0.1200
@<TRIPOS>BOND
   1    1    2 1
   2    1   18 1
   3    1   19 1
   4    1   20 1
   5    2    3 1
   6    2   21 1
   7    2   22 1
   8    3    4 1
   9    4    5 2
  10    4    6 1
  11    6   16 1
  12    6    7 2
  13    7    8 1
  14    7   23 1
  15    8    9 1
  16    9   15 ar
  17    9   10 ar
  18   10   11 ar
  19   10   24 1
  20   11   12 ar
  21   11   25 1
  22   12   13 1
  23   12   14 ar
  24   13   26 1
  25   13   27 1
  26   13   28 1
  27   14   15 ar
  28   14   29 1
  29   15   16 1
  30   16   17 2
