@<TRIPOS>MOLECULE
ZINC000003962832
71    77    1     0     0
SMALL
USER_CHARGES
@<TRIPOS>ATOM
1      C1      2.5167    1.6591    3.2029 C.3      1 ZINC000003962832   -0.0500
2      N2      2.1597    0.2676    2.8958 N.4      1 ZINC000003962832   -0.3900
3      H3      2.8924   -0.3466    3.2181 H        1 ZINC000003962832    0.4300
4      C4      0.9009   -0.0754    3.5708 C.3      1 ZINC000003962832   -0.0500
5      C5      1.9947    0.1134    1.4442 C.3      1 ZINC000003962832   -0.0100
6      C6      3.3438    0.3199    0.7528 C.3      1 ZINC000003962832   -0.1700
7      C7      3.1709    0.1652   -0.7595 C.3      1 ZINC000003962832    0.1500
8      N8      4.4397    0.4620   -1.4290 N.pl3    1 ZINC000003962832   -0.4100
9      N9      4.8627    1.7319   -1.8338 N.2      1 ZINC000003962832   -0.2200
10     C10     6.0461    1.6496   -2.4017 C.2      1 ZINC000003962832    0.1600
11     C11     6.8260    2.7697   -2.9578 C.2      1 ZINC000003962832   -0.0700
12     C12     6.3286    3.9731   -3.4459 C.2      1 ZINC000003962832    0.0200
13     C13     4.9199    4.3855   -3.5126 C.2      1 ZINC000003962832   -0.1400
14     C14     4.1375    4.7942   -2.4694 C.2      1 ZINC000003962832    0.1200
15     N15     2.8906    5.0936   -2.9223 N.pl3    1 ZINC000003962832   -0.4300
16     C16     1.8360    5.5444   -2.1211 C.ar     1 ZINC000003962832    0.1400
17     C17     1.1514    6.7142   -2.4706 C.ar     1 ZINC000003962832   -0.1200
18     C18     0.1230    7.1753   -1.7107 C.ar     1 ZINC000003962832   -0.0800
19     C19    -0.2648    6.4735   -0.5561 C.ar     1 ZINC000003962832   -0.0500
20     C20    -1.3246    6.9263    0.2481 C.ar     1 ZINC000003962832   -0.0900
21     C21    -1.6756    6.2234    1.3596 C.ar     1 ZINC000003962832   -0.1200
22     C22    -0.9993    5.0578    1.7151 C.ar     1 ZINC000003962832   -0.1000
23     C23     0.0320    4.5888    0.9612 C.ar     1 ZINC000003962832   -0.1200
24     C24     0.4231    5.2877   -0.1945 C.ar     1 ZINC000003962832   -0.0400
25     C25     1.4782    4.8293   -0.9992 C.ar     1 ZINC000003962832   -0.1100
26     C26     2.8140    4.8896   -4.2872 C.ar     1 ZINC000003962832    0.1000
27     C27     1.7902    5.0431   -5.2150 C.ar     1 ZINC000003962832   -0.1200
28     C28     2.0168    4.7539   -6.5439 C.ar     1 ZINC000003962832   -0.0900
29     C29     3.2602    4.3096   -6.9682 C.ar     1 ZINC000003962832   -0.1300
30     C30     4.2879    4.1512   -6.0634 C.ar     1 ZINC000003962832   -0.0700
31     C31     4.0746    4.4457   -4.7193 C.ar     1 ZINC000003962832   -0.0700
32     C32     7.5077    4.7545   -3.8849 C.2      1 ZINC000003962832    0.5500
33     O33     7.4803    5.8672   -4.3710 O.2      1 ZINC000003962832   -0.4300
34     N34     8.6129    4.0256   -3.6545 N.am     1 ZINC000003962832   -0.6800
35     C35     8.2923    2.8431   -3.1030 C.2      1 ZINC000003962832    0.5700
36     O36     9.0796    1.9744   -2.7835 O.2      1 ZINC000003962832   -0.4400
37     C37     6.4485    0.2370   -2.3798 C.ar     1 ZINC000003962832   -0.1500
38     C38     7.5755   -0.4544   -2.8259 C.ar     1 ZINC000003962832   -0.0300
39     C39     7.6541   -1.8076   -2.6548 C.ar     1 ZINC000003962832   -0.1500
40     C40     6.6214   -2.5030   -2.0401 C.ar     1 ZINC000003962832   -0.0600
41     C41     5.4998   -1.8419   -1.5925 C.ar     1 ZINC000003962832   -0.1500
42     C42     5.4017   -0.4618   -1.7519 C.ar     1 ZINC000003962832    0.1300
43     H43     3.5045    1.8786    2.7978 H        1 ZINC000003962832    0.1200
44     H44     1.7832    2.3297    2.7553 H        1 ZINC000003962832    0.1200
45     H45     2.5273    1.8014    4.2835 H        1 ZINC000003962832    0.1300
46     H46     0.1093    0.5882    3.2226 H        1 ZINC000003962832    0.1200
47     H47     0.6359   -1.1078    3.3429 H        1 ZINC000003962832    0.1200
48     H48     1.0233    0.0391    4.6479 H        1 ZINC000003962832    0.1300
49     H49     1.6236   -0.8878    1.2251 H        1 ZINC000003962832    0.1400
50     H50     1.2822    0.8530    1.0789 H        1 ZINC000003962832    0.1300
51     H51     3.7169    1.3196    0.9754 H        1 ZINC000003962832    0.1000
52     H52     4.0551   -0.4223    1.1150 H        1 ZINC000003962832    0.0900
53     H53     2.8699   -0.8572   -0.9880 H        1 ZINC000003962832    0.1000
54     H54     2.4046    0.8565   -1.1102 H        1 ZINC000003962832    0.1000
55     H55     4.4604    4.8681   -1.4414 H        1 ZINC000003962832    0.1700
56     H56     1.4447    7.2582   -3.3563 H        1 ZINC000003962832    0.1400
57     H57    -0.3952    8.0797   -1.9934 H        1 ZINC000003962832    0.1400
58     H58    -1.8579    7.8281   -0.0143 H        1 ZINC000003962832    0.1300
59     H59    -2.4903    6.5745    1.9755 H        1 ZINC000003962832    0.1300
60     H60    -1.2980    4.5189    2.6022 H        1 ZINC000003962832    0.1200
61     H61     0.5475    3.6845    1.2492 H        1 ZINC000003962832    0.1100
62     H62     2.0082    3.9251   -0.7384 H        1 ZINC000003962832    0.1300
63     H63     0.8181    5.3881   -4.8951 H        1 ZINC000003962832    0.1200
64     H64     1.2185    4.8743   -7.2612 H        1 ZINC000003962832    0.1300
65     H65     3.4238    4.0865   -8.0121 H        1 ZINC000003962832    0.1300
66     H66     5.2552    3.8047   -6.3961 H        1 ZINC000003962832    0.1200
67     H67     9.5168    4.3144   -3.8554 H        1 ZINC000003962832    0.4400
68     H68     8.3832    0.0786   -3.3054 H        1 ZINC000003962832    0.1400
69     H69     8.5269   -2.3411   -3.0010 H        1 ZINC000003962832    0.1300
70     H70     6.6985   -3.5727   -1.9122 H        1 ZINC000003962832    0.1300
71     H71     4.7011   -2.3907   -1.1157 H        1 ZINC000003962832    0.1200
@<TRIPOS>BOND
1     1     2     1
2     1     43    1
3     1     44    1
4     1     45    1
5     2     3     1
6     2     4     1
7     2     5     1
8     4     46    1
9     4     47    1
10    4     48    1
11    5     6     1
12    5     49    1
13    5     50    1
14    6     7     1
15    6     51    1
16    6     52    1
17    7     8     1
18    7     53    1
19    7     54    1
20    8     42    1
21    8     9     1
22    9     10    2
23    10    11    1
24    10    37    1
25    11    35    1
26    11    12    2
27    12    13    1
28    12    32    1
29    13    31    1
30    13    14    2
31    14    15    1
32    14    55    1
33    15    16    1
34    15    26    1
35    16    25    ar
36    16    17    ar
37    17    18    ar
38    17    56    1
39    18    19    ar
40    18    57    1
41    19    24    ar
42    19    20    ar
43    20    21    ar
44    20    58    1
45    21    22    ar
46    21    59    1
47    22    23    ar
48    22    60    1
49    23    24    ar
50    23    61    1
51    24    25    ar
52    25    62    1
53    26    31    ar
54    26    27    ar
55    27    28    ar
56    27    63    1
57    28    29    ar
58    28    64    1
59    29    30    ar
60    29    65    1
61    30    31    ar
62    30    66    1
63    32    33    2
64    32    34    am
65    34    35    am
66    34    67    1
67    35    36    2
68    37    42    ar
69    37    38    ar
70    38    39    ar
71    38    68    1
72    39    40    ar
73    39    69    1
74    40    41    ar
75    40    70    1
76    41    42    ar
77    41    71    1
@<TRIPOS>SUBSTRUCTURE
1   ZINC000003962832 1     RESIDUE    1   A     ZIN   1
