@<TRIPOS>MOLECULE
ZINC000000023747
  31   33    0    0    0
SMALL
NO_CHARGES
@<TRIPOS>ATOM
   1 C1            -0.0184     1.5028     0.0103 C.3     
   2 C2             0.0021    -0.0041     0.0020 C.ar    
   3 C3             0.0057    -0.6865    -1.2011 C.ar    
   4 C4             0.0239    -2.0665    -1.2146 C.ar    
   5 C5             0.0392    -2.7722    -0.0132 C.ar    
   6 C6             0.0593    -4.2561    -0.0214 C.2     
   7 C7             0.0699    -5.0599     1.0783 C.2     
   8 N8             0.0876    -6.3514     0.6315 N.pl3   
   9 C9             0.1041    -7.5506     1.2840 C.2     
  10 C10            0.1204    -8.7094     0.5926 C.2     
  11 C11            0.1385   -10.0230     1.3308 C.3     
  12 C12            0.1201    -8.6967    -0.8122 C.2     
  13 C13            0.1037    -7.5094    -1.4753 C.2     
  14 C14            0.0873    -6.3067    -0.7392 C.2     
  15 N15            0.0643    -5.0363    -1.1138 N.2     
  16 C16            0.0359    -2.0796     1.1958 C.ar    
  17 C17            0.0229    -0.6995     1.1975 C.ar    
  18 H18            1.0042     1.8801     0.0026 H       
  19 H19           -0.5455     1.8639    -0.8728 H       
  20 H20           -0.5286     1.8543     0.9071 H       
  21 H21           -0.0062    -0.1385    -2.1317 H       
  22 H22            0.0260    -2.5984    -2.1545 H       
  23 H23            0.0653    -4.7374     2.1091 H       
  24 H24            0.1045    -7.5721     2.3638 H       
  25 H25           -0.8847   -10.3541     1.5085 H       
  26 H26            0.6629   -10.7685     0.7330 H       
  27 H27            0.6504    -9.8967     2.2848 H       
  28 H28            0.1332    -9.6255    -1.3630 H       
  29 H29            0.1037    -7.4878    -2.5551 H       
  30 H30            0.0474    -2.6217     2.1299 H       
  31 H31            0.0203    -0.1616     2.1341 H       
@<TRIPOS>BOND
   1    1    2 1
   2    1   18 1
   3    1   19 1
   4    1   20 1
   5    2   17 ar
   6    2    3 ar
   7    3    4 ar
   8    3   21 1
   9    4    5 ar
  10    4   22 1
  11    5    6 1
  12    5   16 ar
  13    6   15 1
  14    6    7 2
  15    7    8 1
  16    7   23 1
  17    8   14 1
  18    8    9 1
  19    9   10 2
  20    9   24 1
  21   10   11 1
  22   10   12 1
  23   11   25 1
  24   11   26 1
  25   11   27 1
  26   12   13 2
  27   12   28 1
  28   13   14 1
  29   13   29 1
  30   14   15 2
  31   16   17 ar
  32   16   30 1
  33   17   31 1
