@<TRIPOS>MOLECULE
ZINC000000039091
36    38    1     0     0
SMALL
USER_CHARGES
@<TRIPOS>ATOM
1      C1     -0.0173    1.4248    0.0099 C.3      1 ZINC000000039091    0.0200
2      O2      0.0021   -0.0041    0.0020 O.3      1 ZINC000000039091   -0.3100
3      C3     -1.2011   -0.6379    0.0101 C.ar     1 ZINC000000039091    0.1200
4      C4     -2.3739    0.0992    0.0195 C.ar     1 ZINC000000039091   -0.2000
5      C5     -3.5965   -0.5469    0.0272 C.ar     1 ZINC000000039091   -0.0600
6      C6     -3.6519   -1.9279    0.0261 C.ar     1 ZINC000000039091   -0.1200
7      C7     -4.9869   -2.6268    0.0350 C.3      1 ZINC000000039091    0.1500
8      H8     -4.8639   -3.6505   -0.3185 H        1 ZINC000000039091    0.0900
9      C9     -5.5478   -2.6421    1.4645 C.3      1 ZINC000000039091   -0.1900
10     C10    -6.9029   -3.3243    1.4082 C.2      1 ZINC000000039091    0.4000
11     O11    -7.2637   -4.0985    2.2706 O.2      1 ZINC000000039091   -0.4200
12     C12    -7.7536   -3.0003    0.2578 C.ar     1 ZINC000000039091   -0.2900
13     C13    -9.1070   -3.3717    0.2407 C.ar     1 ZINC000000039091    0.2200
14     O14    -9.6490   -4.0267    1.2973 O.3      1 ZINC000000039091   -0.4800
15     C15    -9.8842   -3.0644   -0.8620 C.ar     1 ZINC000000039091   -0.2200
16     C16    -9.3256   -2.3914   -1.9414 C.ar     1 ZINC000000039091    0.2000
17     O17   -10.0943   -2.0972   -3.0199 O.3      1 ZINC000000039091   -0.4900
18     C18    -7.9880   -2.0161   -1.9276 C.ar     1 ZINC000000039091   -0.2000
19     C19    -7.1936   -2.3112   -0.8341 C.ar     1 ZINC000000039091    0.2100
20     O20    -5.8937   -1.9328   -0.8216 O.3      1 ZINC000000039091   -0.3000
21     C21    -2.4848   -2.6697    0.0163 C.ar     1 ZINC000000039091   -0.0900
22     C22    -1.2569   -2.0287    0.0032 C.ar     1 ZINC000000039091    0.0800
23     O23    -0.1082   -2.7567   -0.0065 O.3      1 ZINC000000039091   -0.4800
24     H24     1.0053    1.8021    0.0021 H        1 ZINC000000039091    0.1000
25     H25    -0.5445    1.7859   -0.8732 H        1 ZINC000000039091    0.0600
26     H26    -0.5275    1.7763    0.9067 H        1 ZINC000000039091    0.0600
27     H27    -2.3334    1.1784    0.0211 H        1 ZINC000000039091    0.1400
28     H28    -4.5102    0.0290    0.0345 H        1 ZINC000000039091    0.1300
29     H29    -4.8785   -3.1997    2.1198 H        1 ZINC000000039091    0.1200
30     H30    -5.6610   -1.6214    1.8297 H        1 ZINC000000039091    0.1200
31     H31   -10.0230   -3.4433    1.9718 H        1 ZINC000000039091    0.4000
32     H32   -10.9260   -3.3482   -0.8838 H        1 ZINC000000039091    0.1500
33     H33   -10.5373   -1.2394   -2.9649 H        1 ZINC000000039091    0.4000
34     H34    -7.5670   -1.4925   -2.7732 H        1 ZINC000000039091    0.1500
35     H35    -2.5308   -3.7487    0.0154 H        1 ZINC000000039091    0.1400
36     H36     0.2154   -2.9690   -0.8926 H        1 ZINC000000039091    0.3900
@<TRIPOS>BOND
1     1     2     1
2     1     24    1
3     1     25    1
4     1     26    1
5     2     3     1
6     3     22    ar
7     3     4     ar
8     4     5     ar
9     4     27    1
10    5     6     ar
11    5     28    1
12    6     7     1
13    6     21    ar
14    7     8     1
15    7     20    1
16    7     9     1
17    9     10    1
18    9     29    1
19    9     30    1
20    10    11    2
21    10    12    1
22    12    19    ar
23    12    13    ar
24    13    14    1
25    13    15    ar
26    14    31    1
27    15    16    ar
28    15    32    1
29    16    17    1
30    16    18    ar
31    17    33    1
32    18    19    ar
33    18    34    1
34    19    20    1
35    21    22    ar
36    21    35    1
37    22    23    1
38    23    36    1
@<TRIPOS>SUBSTRUCTURE
1   ZINC000000039091 1     RESIDUE    1   A     ZIN   1
