@<TRIPOS>MOLECULE
ZINC000103912743
18    18    1     0     0
SMALL
USER_CHARGES
@<TRIPOS>ATOM
1      C1     -0.0184    1.5028    0.0103 C.3      1 ZINC000103912743   -0.1400
2      C2      0.0021   -0.0041    0.0020 C.2      1 ZINC000103912743    0.1800
3      N3      0.0216   -0.6576    1.1201 N.2      1 ZINC000103912743   -0.3000
4      O4      0.0237    0.0437    2.3502 O.3      1 ZINC000103912743   -0.4400
5      C5     -0.0001   -0.7334   -1.2772 C.2      1 ZINC000103912743   -0.2700
6      C6     -0.0149   -0.0611   -2.4691 C.2      1 ZINC000103912743    0.1700
7      N7     -0.0165   -0.7652   -3.6353 N.am     1 ZINC000103912743   -0.6600
8      C8     -0.0045   -2.1078   -3.6430 C.2      1 ZINC000103912743    0.6400
9      O9     -0.0069   -2.6917   -4.7093 O.2      1 ZINC000103912743   -0.6200
10     N10     0.0107   -2.8255   -2.5062 N.pl3    1 ZINC000103912743   -0.7000
11     C11     0.0196   -2.2042   -1.3080 C.2      1 ZINC000103912743    0.5300
12     O12     0.0334   -2.8471   -0.2748 O.2      1 ZINC000103912743   -0.5600
13     H13     1.0042    1.8801    0.0026 H        1 ZINC000103912743    0.0800
14     H14    -0.5455    1.8639   -0.8728 H        1 ZINC000103912743    0.0700
15     H15    -0.5286    1.8543    0.9071 H        1 ZINC000103912743    0.0700
16     H16     0.0389   -0.5288    3.1294 H        1 ZINC000103912743    0.4000
17     H17    -0.0254    1.0188   -2.4850 H        1 ZINC000103912743    0.1500
18     H18    -0.0270   -0.2861   -4.4787 H        1 ZINC000103912743    0.3900
@<TRIPOS>BOND
1     1     2     1
2     1     13    1
3     1     14    1
4     1     15    1
5     2     3     2
6     2     5     1
7     3     4     1
8     4     16    1
9     5     11    1
10    5     6     2
11    6     7     1
12    6     17    1
13    7     8     am
14    7     18    1
15    8     9     2
16    8     10    1
17    10    11    1
18    11    12    2
@<TRIPOS>SUBSTRUCTURE
1   ZINC000103912743 1     RESIDUE    1   A     ZIN   1
