@<TRIPOS>MOLECULE
ZINC000000001504
  17   17    0    0    0
SMALL
USER_CHARGES
NO_NAME
@<TRIPOS>ATOM
    1 O1        0.0021    -0.0041     0.0020 O.co2  1 <0>      -0.6800
    2 C2       -0.0145     1.2192     0.0087 C.2    1 <0>       0.5200
    3 O3        1.0365     1.8452     0.0021 O.co2  1 <0>      -0.6800
    4 C4       -1.2996     1.9380     0.0187 C.ar   1 <0>      -0.1100
    5 C5       -1.3203     3.3366     0.0207 C.ar   1 <0>      -0.1000
    6 C6       -2.5276     4.0081     0.0301 C.ar   1 <0>       0.0700
    7 O7       -2.5486     5.3680     0.0315 O.3    1 <0>      -0.4900
    8 C8       -3.7234     3.2939     0.0377 C.ar   1 <0>       0.0400
    9 O9       -4.9090     3.9570     0.0470 O.3    1 <0>      -0.4800
   10 C10      -3.7062     1.9011     0.0354 C.ar   1 <0>       0.0700
   11 O11      -4.8759     1.2073     0.0423 O.3    1 <0>      -0.4900
   12 C12      -2.5022     1.2237     0.0206 C.ar   1 <0>      -0.1000
   13 H13      -0.3934     3.8909     0.0151 H      1 <0>       0.1400
   14 H14      -2.5611     5.7621    -0.8514 H      1 <0>       0.3800
   15 H15      -5.2585     4.1502    -0.8337 H      1 <0>       0.3700
   16 H16      -5.2203     1.0080    -0.8390 H      1 <0>       0.3800
   17 H17      -2.4895     0.1438     0.0187 H      1 <0>       0.1400
@<TRIPOS>BOND
   1    1    2 ar
   2    2    3 ar
   3    2    4 1
   4    4   12 ar
   5    4    5 ar
   6    5    6 ar
   7    5   13 1
   8    6    7 1
   9    6    8 ar
  10    7   14 1
  11    8    9 1
  12    8   10 ar
  13    9   15 1
  14   10   11 1
  15   10   12 ar
  16   11   16 1
  17   12   17 1
