@<TRIPOS>MOLECULE
ZINC000016052819
53    55    1     0     0
SMALL
USER_CHARGES
@<TRIPOS>ATOM
1      O1      0.9213   -0.5095   -0.6783 O.2      1 ZINC000016052819   -0.4600
2      C2      0.5284    0.6352   -0.7563 C.2      1 ZINC000016052819    0.5200
3      N3      1.3508    1.6533   -0.4343 N.am     1 ZINC000016052819   -0.7300
4      C4      2.7193    1.3772    0.0097 C.3      1 ZINC000016052819    0.3600
5      H5      2.9788    0.3465   -0.2322 H        1 ZINC000016052819    0.2000
6      N6      2.8124    1.5770    1.4581 N.am     1 ZINC000016052819   -0.6900
7      C7      2.8754    0.5127    2.2825 C.2      1 ZINC000016052819    0.5500
8      S8      2.8467   -1.0728    1.6373 S.2      1 ZINC000016052819   -0.5300
9      N9      2.9611    0.6966    3.6149 N.am     1 ZINC000016052819   -0.6300
10     C10     2.9349   -0.4063    4.4769 C.ar     1 ZINC000016052819    0.1200
11     C11     3.7001   -1.5293    4.1923 C.ar     1 ZINC000016052819    0.0100
12     C12     3.6729   -2.6165    5.0441 C.ar     1 ZINC000016052819   -0.1500
13     C13     2.8832   -2.5868    6.1809 C.ar     1 ZINC000016052819    0.1900
14     F14     2.8579   -3.6511    7.0127 F        1 ZINC000016052819   -0.1000
15     C15     2.1194   -1.4674    6.4669 C.ar     1 ZINC000016052819   -0.0800
16     N16     1.2765   -1.4382    7.6832 N.pl3    1 ZINC000016052819    0.0300
17     O17     0.6046   -0.4540    7.9351 O.2      1 ZINC000016052819   -0.1600
18     O18     1.2546   -2.3985    8.4322 O.2      1 ZINC000016052819   -0.1400
19     C19     2.1479   -0.3764    5.6208 C.ar     1 ZINC000016052819   -0.0300
20     C20     3.6870    2.3267   -0.6994 C.3      1 ZINC000016052819    0.1100
21     Cl21    3.2577    4.0315   -0.2991 Cl       1 ZINC000016052819   -0.0900
22     Cl22    5.3712    1.9868   -0.1529 Cl       1 ZINC000016052819   -0.0600
23     Cl23    3.5724    2.0807   -2.4818 Cl       1 ZINC000016052819   -0.0400
24     C24    -0.8773    0.9196   -1.2190 C.3      1 ZINC000016052819   -0.0200
25     C25    -0.8345    1.7674   -2.4642 C.ar     1 ZINC000016052819   -0.0800
26     C26     0.0718    1.4775   -3.4669 C.ar     1 ZINC000016052819   -0.1100
27     C27     0.1111    2.2552   -4.6091 C.ar     1 ZINC000016052819   -0.1100
28     C28    -0.7561    3.3226   -4.7487 C.ar     1 ZINC000016052819   -0.1100
29     C29    -1.6630    3.6120   -3.7463 C.ar     1 ZINC000016052819   -0.1200
30     C30    -1.7052    2.8317   -2.6060 C.ar     1 ZINC000016052819   -0.1100
31     C31    -1.5796   -0.3794   -1.5197 C.ar     1 ZINC000016052819   -0.0700
32     C32    -1.1329   -1.1839   -2.5513 C.ar     1 ZINC000016052819   -0.0800
33     C33    -1.7771   -2.3755   -2.8271 C.ar     1 ZINC000016052819   -0.1200
34     C34    -2.8677   -2.7627   -2.0711 C.ar     1 ZINC000016052819   -0.1100
35     C35    -3.3139   -1.9586   -1.0390 C.ar     1 ZINC000016052819   -0.1200
36     C36    -2.6670   -0.7691   -0.7604 C.ar     1 ZINC000016052819   -0.1100
37     H37     1.0366    2.5689   -0.4967 H        1 ZINC000016052819    0.4100
38     H38     2.8287    2.4754    1.8236 H        1 ZINC000016052819    0.4000
39     H39     3.0409    1.5931    3.9767 H        1 ZINC000016052819    0.4100
40     H40     4.3160   -1.5530    3.3055 H        1 ZINC000016052819    0.1800
41     H41     4.2677   -3.4903    4.8229 H        1 ZINC000016052819    0.1700
42     H42     1.5522    0.4963    5.8441 H        1 ZINC000016052819    0.1600
43     H43    -1.4171    1.4516   -0.4356 H        1 ZINC000016052819    0.1100
44     H44     0.7493    0.6436   -3.3579 H        1 ZINC000016052819    0.1200
45     H45     0.8196    2.0291   -5.3922 H        1 ZINC000016052819    0.1200
46     H46    -0.7249    3.9306   -5.6407 H        1 ZINC000016052819    0.1200
47     H47    -2.3403    4.4461   -3.8552 H        1 ZINC000016052819    0.1300
48     H48    -2.4137    3.0577   -1.8229 H        1 ZINC000016052819    0.1200
49     H49    -0.2809   -0.8814   -3.1419 H        1 ZINC000016052819    0.1200
50     H50    -1.4286   -3.0037   -3.6335 H        1 ZINC000016052819    0.1200
51     H51    -3.3715   -3.6933   -2.2871 H        1 ZINC000016052819    0.1200
52     H52    -4.1662   -2.2610   -0.4486 H        1 ZINC000016052819    0.1200
53     H53    -3.0156   -0.1409    0.0459 H        1 ZINC000016052819    0.1200
@<TRIPOS>BOND
1     1     2     2
2     2     3     am
3     2     24    1
4     3     4     1
5     3     37    1
6     4     5     1
7     4     6     1
8     4     20    1
9     6     7     am
10    6     38    1
11    7     8     2
12    7     9     am
13    9     10    1
14    9     39    1
15    10    19    ar
16    10    11    ar
17    11    12    ar
18    11    40    1
19    12    13    ar
20    12    41    1
21    13    14    1
22    13    15    ar
23    15    16    1
24    15    19    ar
25    16    17    2
26    16    18    2
27    19    42    1
28    20    21    1
29    20    22    1
30    20    23    1
31    24    25    1
32    24    31    1
33    24    43    1
34    25    30    ar
35    25    26    ar
36    26    27    ar
37    26    44    1
38    27    28    ar
39    27    45    1
40    28    29    ar
41    28    46    1
42    29    30    ar
43    29    47    1
44    30    48    1
45    31    36    ar
46    31    32    ar
47    32    33    ar
48    32    49    1
49    33    34    ar
50    33    50    1
51    34    35    ar
52    34    51    1
53    35    36    ar
54    35    52    1
55    36    53    1
@<TRIPOS>SUBSTRUCTURE
1   ZINC000016052819 1     RESIDUE    1   A     ZIN   1
