@<TRIPOS>MOLECULE
ZINC000024809155
57    61    1     0     0
SMALL
USER_CHARGES
@<TRIPOS>ATOM
1      C1      2.6492   -0.5884    1.0146 C.3      1 ZINC000024809155    0.0700
2      N2      1.3129   -0.4833    0.4234 N.pl3    1 ZINC000024809155   -0.4600
3      C3      1.0247   -0.3741   -0.8914 C.2      1 ZINC000024809155    0.2400
4      N4     -0.2708   -0.3038   -1.0313 N.2      1 ZINC000024809155   -0.4800
5      C5     -0.8502   -0.3651    0.1768 C.2      1 ZINC000024809155    0.0700
6      C6      0.1230   -0.4836    1.1001 C.2      1 ZINC000024809155   -0.1200
7      C7     -0.0618   -0.5866    2.5921 C.3      1 ZINC000024809155    0.2800
8      N8      0.6168    0.5388    3.2485 N.4      1 ZINC000024809155   -0.6400
9      H9      0.3177    1.4048    2.8257 H        1 ZINC000024809155    0.4400
10     H10     0.3839    0.5457    4.2302 H        1 ZINC000024809155    0.4400
11     H11     1.6150    0.4389    3.1403 H        1 ZINC000024809155    0.4300
12     C12    -1.5322   -0.5468    2.9200 C.ar     1 ZINC000024809155   -0.1200
13     C13    -2.3103   -1.6757    2.7433 C.ar     1 ZINC000024809155   -0.0600
14     C14    -3.6589   -1.6399    3.0438 C.ar     1 ZINC000024809155   -0.0900
15     C15    -4.2301   -0.4739    3.5217 C.ar     1 ZINC000024809155   -0.0100
16     Cl16   -5.9237   -0.4282    3.9000 Cl       1 ZINC000024809155   -0.0400
17     C17    -3.4508    0.6556    3.6984 C.ar     1 ZINC000024809155   -0.0900
18     C18    -2.1012    0.6169    3.4028 C.ar     1 ZINC000024809155   -0.1100
19     C19     0.5274   -1.8839    3.0829 C.ar     1 ZINC000024809155   -0.1700
20     C20     0.4232   -3.0272    2.3034 C.ar     1 ZINC000024809155   -0.0300
21     C21     0.9557   -4.2231    2.7351 C.ar     1 ZINC000024809155   -0.1400
22     C22     1.6046   -4.2895    3.9631 C.ar     1 ZINC000024809155    0.2200
23     C23     1.7104   -3.1313    4.7533 C.ar     1 ZINC000024809155   -0.1000
24     C24     1.1708   -1.9263    4.2997 C.ar     1 ZINC000024809155   -0.0600
25     C25     2.3998   -3.2158    6.0509 C.2      1 ZINC000024809155    0.0300
26     C26     2.5354   -2.0237    6.9172 C.ar     1 ZINC000024809155   -0.0600
27     C27     1.4021   -1.4298    7.4739 C.ar     1 ZINC000024809155   -0.1000
28     C28     1.5345   -0.3187    8.2813 C.ar     1 ZINC000024809155   -0.1000
29     C29     2.7875    0.2071    8.5396 C.ar     1 ZINC000024809155   -0.1000
30     C30     3.9167   -0.3772    7.9904 C.ar     1 ZINC000024809155   -0.0300
31     Cl31    5.4852    0.2898    8.3204 Cl       1 ZINC000024809155   -0.0500
32     C32     3.7977   -1.4924    7.1853 C.ar     1 ZINC000024809155   -0.0900
33     C33     2.9122   -4.4259    6.4364 C.2      1 ZINC000024809155   -0.1700
34     C34     2.7742   -5.5485    5.6004 C.2      1 ZINC000024809155    0.5300
35     O35     3.2373   -6.6171    5.9615 O.2      1 ZINC000024809155   -0.5100
36     N36     2.1455   -5.4760    4.4149 N.am     1 ZINC000024809155   -0.5200
37     C37     2.0328   -6.6790    3.5864 C.3      1 ZINC000024809155    0.0500
38     H38     2.9004   -1.6390    1.1606 H        1 ZINC000024809155    0.1000
39     H39     3.3788   -0.1297    0.3473 H        1 ZINC000024809155    0.1100
40     H40     2.6626   -0.0747    1.9759 H        1 ZINC000024809155    0.0600
41     H41     1.7468   -0.3484   -1.6941 H        1 ZINC000024809155    0.2200
42     H42    -1.9114   -0.3298    0.3743 H        1 ZINC000024809155    0.1800
43     H43    -1.8644   -2.5857    2.3699 H        1 ZINC000024809155    0.1400
44     H44    -4.2667   -2.5218    2.9054 H        1 ZINC000024809155    0.1500
45     H45    -3.8962    1.5662    4.0711 H        1 ZINC000024809155    0.1500
46     H46    -1.4928    1.4984    3.5410 H        1 ZINC000024809155    0.1300
47     H47    -0.0804   -2.9796    1.3492 H        1 ZINC000024809155    0.1400
48     H48     0.8687   -5.1070    2.1207 H        1 ZINC000024809155    0.1500
49     H49     1.2502   -1.0343    4.9034 H        1 ZINC000024809155    0.1300
50     H50     0.4229   -1.8388    7.2729 H        1 ZINC000024809155    0.1300
51     H51     0.6578    0.1417    8.7122 H        1 ZINC000024809155    0.1400
52     H52     2.8857    1.0771    9.1720 H        1 ZINC000024809155    0.1400
53     H53     4.6786   -1.9476    6.7574 H        1 ZINC000024809155    0.1400
54     H54     3.4233   -4.5182    7.3834 H        1 ZINC000024809155    0.1700
55     H55     2.5120   -7.5161    4.0941 H        1 ZINC000024809155    0.1100
56     H56     0.9802   -6.9088    3.4209 H        1 ZINC000024809155    0.0800
57     H57     2.5222   -6.5071    2.6278 H        1 ZINC000024809155    0.0800
@<TRIPOS>BOND
1     1     2     1
2     1     38    1
3     1     39    1
4     1     40    1
5     2     6     1
6     2     3     1
7     3     4     2
8     3     41    1
9     4     5     1
10    5     6     2
11    5     42    1
12    6     7     1
13    7     8     1
14    7     12    1
15    7     19    1
16    8     9     1
17    8     10    1
18    8     11    1
19    12    18    ar
20    12    13    ar
21    13    14    ar
22    13    43    1
23    14    15    ar
24    14    44    1
25    15    16    1
26    15    17    ar
27    17    18    ar
28    17    45    1
29    18    46    1
30    19    24    ar
31    19    20    ar
32    20    21    ar
33    20    47    1
34    21    22    ar
35    21    48    1
36    22    36    1
37    22    23    ar
38    23    24    ar
39    23    25    1
40    24    49    1
41    25    26    1
42    25    33    2
43    26    32    ar
44    26    27    ar
45    27    28    ar
46    27    50    1
47    28    29    ar
48    28    51    1
49    29    30    ar
50    29    52    1
51    30    31    1
52    30    32    ar
53    32    53    1
54    33    34    1
55    33    54    1
56    34    35    2
57    34    36    am
58    36    37    1
59    37    55    1
60    37    56    1
61    37    57    1
@<TRIPOS>SUBSTRUCTURE
1   ZINC000024809155 1     RESIDUE    1   A     ZIN   1
