@<TRIPOS>MOLECULE
ZINC000003937622
42    44    1     0     0
SMALL
USER_CHARGES
@<TRIPOS>ATOM
1      O1     -0.0282    1.4254   -0.0186 O.3      1 ZINC000003937622   -0.5700
2      C2     -0.0097   -0.0033   -0.0413 C.3      1 ZINC000003937622    0.0800
3      C3     -1.4120   -0.5363    0.2593 C.3      1 ZINC000003937622   -0.1300
4      C4     -1.3922   -2.0660    0.2349 C.3      1 ZINC000003937622    0.1300
5      N5     -2.7349   -2.5764    0.5228 N.pl3    1 ZINC000003937622   -0.7200
6      C6     -2.9654   -3.9470    0.5554 C.ar     1 ZINC000003937622    0.4000
7      C7     -1.9153   -4.8267    0.3194 C.ar     1 ZINC000003937622   -0.1800
8      C8     -2.1628   -6.1985    0.3557 C.ar     1 ZINC000003937622    0.0300
9      C9     -1.0728   -7.1757    0.1105 C.ar     1 ZINC000003937622    0.4500
10     N10     0.1614   -6.7474   -0.1429 N.ar     1 ZINC000003937622   -0.5800
11     C11     1.1327   -7.6170   -0.3615 C.ar     1 ZINC000003937622    0.3900
12     N12     0.8827   -8.9138   -0.3298 N.ar     1 ZINC000003937622   -0.5900
13     C13    -0.3490   -9.3499   -0.0771 C.ar     1 ZINC000003937622    0.6000
14     N14    -0.6094  -10.7061   -0.0443 N.pl3    1 ZINC000003937622   -0.6200
15     C15     0.4405  -11.6225   -0.1592 C.ar     1 ZINC000003937622    0.1700
16     C16     1.6658  -11.3553    0.4374 C.ar     1 ZINC000003937622   -0.1000
17     C17     2.7013  -12.2622    0.3224 C.ar     1 ZINC000003937622   -0.0900
18     C18     2.5195  -13.4355   -0.3859 C.ar     1 ZINC000003937622   -0.1200
19     C19     1.2997  -13.7054   -0.9820 C.ar     1 ZINC000003937622   -0.0200
20     Cl20    1.0757  -15.1802   -1.8699 Cl       1 ZINC000003937622   -0.0600
21     C21     0.2582  -12.8045   -0.8655 C.ar     1 ZINC000003937622   -0.1300
22     N22    -1.3269   -8.4791    0.1490 N.ar     1 ZINC000003937622   -0.5800
23     C23    -3.4651   -6.6297    0.6297 C.ar     1 ZINC000003937622   -0.1800
24     C24    -4.4514   -5.6916    0.8527 C.ar     1 ZINC000003937622    0.1500
25     N25    -4.1816   -4.4007    0.8163 N.ar     1 ZINC000003937622   -0.5300
26     H26     0.8296    1.8328   -0.2014 H        1 ZINC000003937622    0.3800
27     H27     0.3062   -0.3470   -1.0263 H        1 ZINC000003937622    0.0500
28     H28     0.6875   -0.3697    0.7122 H        1 ZINC000003937622    0.0500
29     H29    -1.7279   -0.1927    1.2443 H        1 ZINC000003937622    0.0800
30     H30    -2.1092   -0.1699   -0.4942 H        1 ZINC000003937622    0.0800
31     H31    -1.0763   -2.4096   -0.7500 H        1 ZINC000003937622    0.0700
32     H32    -0.6950   -2.4324    0.9884 H        1 ZINC000003937622    0.0700
33     H33    -3.4632   -1.9580    0.6906 H        1 ZINC000003937622    0.4100
34     H34    -0.9235   -4.4536    0.1109 H        1 ZINC000003937622    0.1500
35     H35     2.1334   -7.2664   -0.5668 H        1 ZINC000003937622    0.2100
36     H36    -1.5205  -11.0227    0.0585 H        1 ZINC000003937622    0.4300
37     H37     1.8090  -10.4389    0.9907 H        1 ZINC000003937622    0.1400
38     H38     3.6543  -12.0543    0.7860 H        1 ZINC000003937622    0.1400
39     H39     3.3310  -14.1427   -0.4746 H        1 ZINC000003937622    0.1400
40     H40    -0.6936  -13.0154   -1.3303 H        1 ZINC000003937622    0.1400
41     H41    -3.6955   -7.6843    0.6658 H        1 ZINC000003937622    0.1500
42     H42    -5.4587   -6.0188    1.0644 H        1 ZINC000003937622    0.1600
@<TRIPOS>BOND
1     1     2     1
2     1     26    1
3     2     3     1
4     2     27    1
5     2     28    1
6     3     4     1
7     3     29    1
8     3     30    1
9     4     5     1
10    4     31    1
11    4     32    1
12    5     6     1
13    5     33    1
14    6     25    ar
15    6     7     ar
16    7     8     ar
17    7     34    1
18    8     9     1
19    8     23    ar
20    9     22    ar
21    9     10    ar
22    10    11    ar
23    11    12    ar
24    11    35    1
25    12    13    ar
26    13    14    1
27    13    22    ar
28    14    15    1
29    14    36    1
30    15    21    ar
31    15    16    ar
32    16    17    ar
33    16    37    1
34    17    18    ar
35    17    38    1
36    18    19    ar
37    18    39    1
38    19    20    1
39    19    21    ar
40    21    40    1
41    23    24    ar
42    23    41    1
43    24    25    ar
44    24    42    1
@<TRIPOS>SUBSTRUCTURE
1   ZINC000003937622 1     RESIDUE    1   A     ZIN   1
