@<TRIPOS>MOLECULE
ZINC000005195808
55    58    1     0     0
SMALL
USER_CHARGES
@<TRIPOS>ATOM
1      C1      0.2952    0.9631    0.1288 C.3      1 ZINC000005195808   -0.1200
2      C2      0.0837   -0.5275    0.0620 C.2      1 ZINC000005195808   -0.1200
3      C3      1.2691   -1.4579    0.0715 C.3      1 ZINC000005195808   -0.1200
4      C4     -1.1306   -1.0145   -0.0045 C.2      1 ZINC000005195808   -0.1700
5      C5     -2.3161   -0.0841   -0.0141 C.3      1 ZINC000005195808   -0.0300
6      C6     -3.1744   -0.3765   -1.2177 C.2      1 ZINC000005195808   -0.2500
7      C7     -4.2344   -1.2256   -1.1144 C.2      1 ZINC000005195808    0.2000
8      C8     -4.5209   -1.8468    0.1898 C.ar     1 ZINC000005195808   -0.1000
9      C9     -4.8967   -1.0533    1.2778 C.ar     1 ZINC000005195808   -0.0500
10     C10    -5.1642   -1.6380    2.4950 C.ar     1 ZINC000005195808   -0.1500
11     C11    -5.0620   -3.0167    2.6473 C.ar     1 ZINC000005195808    0.1500
12     O12    -5.3280   -3.5853    3.8511 O.3      1 ZINC000005195808   -0.4900
13     C13    -4.6898   -3.8135    1.5741 C.ar     1 ZINC000005195808   -0.1800
14     C14    -4.4235   -3.2385    0.3440 C.ar     1 ZINC000005195808    0.1600
15     O15    -4.0594   -4.0162   -0.7068 O.3      1 ZINC000005195808   -0.4900
16     O16    -5.0278   -1.5168   -2.1576 O.3      1 ZINC000005195808   -0.2100
17     C17    -4.8323   -0.9871   -3.3823 C.ar     1 ZINC000005195808    0.2100
18     C18    -5.6742   -1.3049   -4.4480 C.ar     1 ZINC000005195808   -0.1700
19     C19    -6.8125   -2.2320   -4.2789 C.2      1 ZINC000005195808   -0.0800
20     C20    -7.3658   -2.7517   -5.3736 C.2      1 ZINC000005195808   -0.1800
21     C21    -6.8197   -2.3984   -6.7319 C.3      1 ZINC000005195808    0.1500
22     C22    -5.7101   -3.3847   -7.1020 C.3      1 ZINC000005195808   -0.1700
23     C23    -7.9426   -2.4905   -7.7670 C.3      1 ZINC000005195808   -0.1400
24     O24    -6.2898   -1.0724   -6.7295 O.3      1 ZINC000005195808   -0.2900
25     C25    -5.4521   -0.7426   -5.7138 C.ar     1 ZINC000005195808    0.2100
26     C26    -4.3959    0.1312   -5.9150 C.ar     1 ZINC000005195808   -0.2000
27     C27    -3.5518    0.4557   -4.8661 C.ar     1 ZINC000005195808    0.2400
28     O28    -2.5187    1.3120   -5.0668 O.3      1 ZINC000005195808   -0.4700
29     C29    -3.7655   -0.0991   -3.5972 C.ar     1 ZINC000005195808   -0.2800
30     C30    -2.8890    0.2329   -2.4606 C.2      1 ZINC000005195808    0.4300
31     O31    -1.9491    1.0011   -2.5885 O.2      1 ZINC000005195808   -0.4500
32     H32     1.3629    1.1767    0.1788 H        1 ZINC000005195808    0.0600
33     H33    -0.1276    1.4303   -0.7606 H        1 ZINC000005195808    0.0800
34     H34    -0.1968    1.3604    1.0166 H        1 ZINC000005195808    0.0600
35     H35     1.5150   -1.7226    1.1000 H        1 ZINC000005195808    0.0700
36     H36     1.0265   -2.3613   -0.4880 H        1 ZINC000005195808    0.0600
37     H37     2.1233   -0.9628   -0.3903 H        1 ZINC000005195808    0.0600
38     H38    -1.2822   -2.0827   -0.0524 H        1 ZINC000005195808    0.1100
39     H39    -2.9010   -0.2315    0.8938 H        1 ZINC000005195808    0.0800
40     H40    -1.9677    0.9478   -0.0583 H        1 ZINC000005195808    0.0900
41     H41    -4.9768    0.0176    1.1635 H        1 ZINC000005195808    0.1400
42     H42    -5.4540   -1.0238    3.3348 H        1 ZINC000005195808    0.1400
43     H43    -6.2536   -3.8382    3.9707 H        1 ZINC000005195808    0.4000
44     H44    -4.6120   -4.8836    1.6978 H        1 ZINC000005195808    0.1400
45     H45    -4.8047   -4.3962   -1.1918 H        1 ZINC000005195808    0.4000
46     H46    -7.1847   -2.4814   -3.2962 H        1 ZINC000005195808    0.1400
47     H47    -8.2050   -3.4260   -5.2871 H        1 ZINC000005195808    0.1400
48     H48    -6.1154   -4.3963   -7.1231 H        1 ZINC000005195808    0.0800
49     H49    -5.3123   -3.1320   -8.0848 H        1 ZINC000005195808    0.0700
50     H50    -4.9121   -3.3284   -6.3616 H        1 ZINC000005195808    0.0600
51     H51    -8.7393   -1.7955   -7.5017 H        1 ZINC000005195808    0.0700
52     H52    -7.5510   -2.2354   -8.7517 H        1 ZINC000005195808    0.0700
53     H53    -8.3377   -3.5063   -7.7851 H        1 ZINC000005195808    0.0800
54     H54    -4.2302    0.5599   -6.8923 H        1 ZINC000005195808    0.1500
55     H55    -2.7421    2.2405   -4.9146 H        1 ZINC000005195808    0.4000
@<TRIPOS>BOND
1     1     2     1
2     1     32    1
3     1     33    1
4     1     34    1
5     2     3     1
6     2     4     2
7     3     35    1
8     3     36    1
9     3     37    1
10    4     5     1
11    4     38    1
12    5     6     1
13    5     39    1
14    5     40    1
15    6     30    1
16    6     7     2
17    7     8     1
18    7     16    1
19    8     14    ar
20    8     9     ar
21    9     10    ar
22    9     41    1
23    10    11    ar
24    10    42    1
25    11    12    1
26    11    13    ar
27    12    43    1
28    13    14    ar
29    13    44    1
30    14    15    1
31    15    45    1
32    16    17    1
33    17    29    ar
34    17    18    ar
35    18    25    ar
36    18    19    1
37    19    20    2
38    19    46    1
39    20    21    1
40    20    47    1
41    21    22    1
42    21    23    1
43    21    24    1
44    22    48    1
45    22    49    1
46    22    50    1
47    23    51    1
48    23    52    1
49    23    53    1
50    24    25    1
51    25    26    ar
52    26    27    ar
53    26    54    1
54    27    28    1
55    27    29    ar
56    28    55    1
57    29    30    1
58    30    31    2
@<TRIPOS>SUBSTRUCTURE
1   ZINC000005195808 1     RESIDUE    1   A     ZIN   1
