@<TRIPOS>MOLECULE
ZINC000268711333
  36   37    0    0    0
SMALL
USER_CHARGES
NO_NAME
@<TRIPOS>ATOM
    1 C1       -0.0178     1.4608     0.0101 C.3    1 <0>       0.0900
    2 N2        0.0021    -0.0041     0.0020 N.pl3  1 <0>      -0.7500
    3 C3        0.6077    -0.6902    -1.0576 C.ar   1 <0>       0.2100
    4 C4        1.1942     0.0147    -2.0973 C.ar   1 <0>      -0.2000
    5 C5        1.7924    -0.6651    -3.1428 C.ar   1 <0>      -0.0800
    6 C6        1.8073    -2.0471    -3.1552 C.ar   1 <0>      -0.1700
    7 C7        1.2241    -2.7584    -2.1223 C.ar   1 <0>      -0.0800
    8 C8        0.6278    -2.0851    -1.0673 C.ar   1 <0>       0.0900
    9 N9        0.0373    -2.8031    -0.0203 N.pl3  1 <0>      -0.6700
   10 C10      -1.3778    -3.1932    -0.0849 C.3    1 <0>       0.1500
   11 C11      -1.4838    -4.7039     0.1455 C.3    1 <0>      -0.1300
   12 C12      -0.7918    -5.0649     1.4619 C.3    1 <0>      -0.0800
   13 C13      -0.9256    -6.5683     1.7126 C.3    1 <0>       0.0800
   14 O14      -0.3825    -6.8876     2.9953 O.3    1 <0>      -0.5700
   15 C15       0.6902    -4.6916     1.3802 C.3    1 <0>      -0.1300
   16 C16       0.8224    -3.1860     1.1611 C.3    1 <0>       0.1500
   17 H17       1.0048     1.8381     0.0023 H      1 <0>       0.0500
   18 H18      -0.5450     1.8219    -0.8730 H      1 <0>       0.0500
   19 H19      -0.5280     1.8123     0.9069 H      1 <0>       0.0700
   20 H20      -0.4044    -0.4986     0.7308 H      1 <0>       0.4000
   21 H21       1.1838     1.0946    -2.0910 H      1 <0>       0.1200
   22 H22       2.2488    -0.1145    -3.9520 H      1 <0>       0.1200
   23 H23       2.2753    -2.5732    -3.9741 H      1 <0>       0.1200
   24 H24       1.2369    -3.8382    -2.1355 H      1 <0>       0.1200
   25 H25      -1.9379    -2.6656     0.6872 H      1 <0>       0.0500
   26 H26      -1.7811    -2.9440    -1.0664 H      1 <0>       0.0700
   27 H27      -2.5340    -4.9915     0.1959 H      1 <0>       0.0700
   28 H28      -1.0005    -5.2321    -0.6764 H      1 <0>       0.0700
   29 H29      -1.2594    -4.5173     2.2801 H      1 <0>       0.0800
   30 H30      -1.9784    -6.8492     1.6837 H      1 <0>       0.0400
   31 H31      -0.3824    -7.1150     0.9418 H      1 <0>       0.0400
   32 H32      -0.4337    -7.8263     3.2215 H      1 <0>       0.3800
   33 H33       1.1873    -4.9704     2.3093 H      1 <0>       0.0700
   34 H34       1.1530    -5.2199     0.5467 H      1 <0>       0.0600
   35 H35       1.8702    -2.9303     1.0036 H      1 <0>       0.0700
   36 H36       0.4416    -2.6549     2.0334 H      1 <0>       0.0500
@<TRIPOS>BOND
   1    1    2 1
   2    1   17 1
   3    1   18 1
   4    1   19 1
   5    2    3 1
   6    2   20 1
   7    3    8 ar
   8    3    4 ar
   9    4    5 ar
  10    4   21 1
  11    5    6 ar
  12    5   22 1
  13    6    7 ar
  14    6   23 1
  15    7    8 ar
  16    7   24 1
  17    8    9 1
  18    9   16 1
  19    9   10 1
  20   10   11 1
  21   10   25 1
  22   10   26 1
  23   11   12 1
  24   11   27 1
  25   11   28 1
  26   12   13 1
  27   12   15 1
  28   12   29 1
  29   13   14 1
  30   13   30 1
  31   13   31 1
  32   14   32 1
  33   15   16 1
  34   15   33 1
  35   15   34 1
  36   16   35 1
  37   16   36 1
