@<TRIPOS>MOLECULE
ZINC000018825333
29    32    1     0     0
SMALL
USER_CHARGES
@<TRIPOS>ATOM
1      O1      0.0261    0.0608    0.5718 O.2      1 ZINC000018825333   -0.5300
2      C2     -0.0023    1.2445    0.2945 C.2      1 ZINC000018825333    0.5600
3      N3     -1.1033    2.0101    0.2048 N.am     1 ZINC000018825333   -0.6600
4      C4     -0.7833    3.3210   -0.1313 C.ar     1 ZINC000018825333    0.1100
5      C5     -1.5781    4.4431   -0.3310 C.ar     1 ZINC000018825333   -0.1400
6      C6     -1.0000    5.6524   -0.6649 C.ar     1 ZINC000018825333   -0.1200
7      C7      0.3732    5.7640   -0.8049 C.ar     1 ZINC000018825333   -0.1500
8      C8      1.1805    4.6613   -0.6108 C.ar     1 ZINC000018825333   -0.1100
9      C9      0.6078    3.4374   -0.2739 C.ar     1 ZINC000018825333   -0.0400
10     C10     1.1700    2.0998    0.0022 C.2      1 ZINC000018825333   -0.2800
11     C11     2.4990    1.7278   -0.0115 C.2      1 ZINC000018825333    0.1900
12     N12     2.9866    0.4442    0.0709 N.pl3    1 ZINC000018825333   -0.5900
13     C13     4.3734    0.4392    0.0265 C.ar     1 ZINC000018825333    0.1900
14     C14     5.2903   -0.6057    0.0773 C.ar     1 ZINC000018825333   -0.1700
15     C15     6.6443   -0.3443    0.0145 C.ar     1 ZINC000018825333   -0.0600
16     C16     7.1084    0.9562   -0.0999 C.ar     1 ZINC000018825333   -0.2200
17     C17     6.2172    2.0072   -0.1519 C.ar     1 ZINC000018825333   -0.0100
18     C18     4.8461    1.7561   -0.0894 C.ar     1 ZINC000018825333   -0.3200
19     C19     3.6640    2.6370   -0.1243 C.2      1 ZINC000018825333    0.4100
20     O20     3.6484    3.8492   -0.2229 O.2      1 ZINC000018825333   -0.4400
21     H21    -2.0062    1.6891    0.3550 H        1 ZINC000018825333    0.4000
22     H22    -2.6504    4.3696   -0.2253 H        1 ZINC000018825333    0.1100
23     H23    -1.6252    6.5195   -0.8187 H        1 ZINC000018825333    0.1100
24     H24     0.8131    6.7150   -1.0666 H        1 ZINC000018825333    0.1100
25     H25     2.2516    4.7474   -0.7194 H        1 ZINC000018825333    0.1600
26     H26     4.9419   -1.6241    0.1664 H        1 ZINC000018825333    0.1200
27     H27     7.3490   -1.1617    0.0553 H        1 ZINC000018825333    0.1200
28     H28     8.1703    1.1472   -0.1481 H        1 ZINC000018825333    0.1100
29     H29     6.5791    3.0209   -0.2407 H        1 ZINC000018825333    0.1100
@<TRIPOS>BOND
1     1     2     2
2     2     10    1
3     2     3     am
4     3     4     1
5     3     21    1
6     4     9     ar
7     4     5     ar
8     5     6     ar
9     5     22    1
10    6     7     ar
11    6     23    1
12    7     8     ar
13    7     24    1
14    8     9     ar
15    8     25    1
16    9     10    1
17    10    11    2
18    11    19    1
19    11    12    1
20    12    13    1
21    13    18    ar
22    13    14    ar
23    14    15    ar
24    14    26    1
25    15    16    ar
26    15    27    1
27    16    17    ar
28    16    28    1
29    17    18    ar
30    17    29    1
31    18    19    1
32    19    20    2
@<TRIPOS>SUBSTRUCTURE
1   ZINC000018825333 1     RESIDUE    1   A     ZIN   1
