@<TRIPOS>MOLECULE
ZINC000013559666
66    70    1     0     0
SMALL
USER_CHARGES
@<TRIPOS>ATOM
1      C1     -0.8666    1.6618   -0.3026 C.3      1 ZINC000013559666   -0.1500
2      C2     -0.7396    0.1370   -0.2982 C.3      1 ZINC000013559666    0.0600
3      O3     -2.0552   -0.4577   -0.1445 O.3      1 ZINC000013559666   -0.3600
4      C4     -2.1190   -1.7983   -0.1211 C.2      1 ZINC000013559666    0.4500
5      O5     -1.1089   -2.4531   -0.2256 O.2      1 ZINC000013559666   -0.4900
6      C6     -3.4504   -2.4867    0.0355 C.3      1 ZINC000013559666    0.1300
7      N7     -3.2701   -3.9345   -0.0971 N.pl3    1 ZINC000013559666   -0.4700
8      C8     -3.3126   -4.6312   -1.2897 C.ar     1 ZINC000013559666    0.1600
9      C9     -3.0972   -5.9895   -1.0150 C.ar     1 ZINC000013559666   -0.0500
10     C10    -2.9157   -6.0994    0.4384 C.ar     1 ZINC000013559666    0.1600
11     C11    -3.0272   -4.8000    0.9507 C.ar     1 ZINC000013559666    0.0700
12     C12    -2.8909   -4.6249    2.3356 C.ar     1 ZINC000013559666    0.3300
13     N13    -2.9916   -3.3637    2.9018 N.3      1 ZINC000013559666   -0.4900
14     C14    -1.7674   -3.0173    3.6372 C.3      1 ZINC000013559666    0.0600
15     C15    -1.8871   -1.5906    4.1784 C.3      1 ZINC000013559666    0.0600
16     N16    -3.0661   -1.4976    5.0506 N.3      1 ZINC000013559666   -0.5400
17     C17    -3.1729   -0.1610    5.6506 C.3      1 ZINC000013559666    0.0600
18     C18    -4.2533   -0.1731    6.7339 C.3      1 ZINC000013559666   -0.0800
19     C19    -4.3628    1.1981    7.3495 C.ar     1 ZINC000013559666   -0.0600
20     C20    -3.5865    1.5271    8.4447 C.ar     1 ZINC000013559666   -0.0900
21     C21    -3.6853    2.7844    9.0112 C.ar     1 ZINC000013559666   -0.1200
22     C22    -4.5616    3.7150    8.4815 C.ar     1 ZINC000013559666    0.0600
23     F23    -4.6584    4.9440    9.0342 F        1 ZINC000013559666   -0.1300
24     C24    -5.3403    3.3850    7.3822 C.ar     1 ZINC000013559666    0.0700
25     F25    -6.1966    4.2919    6.8633 F        1 ZINC000013559666   -0.1300
26     C26    -5.2356    2.1274    6.8146 C.ar     1 ZINC000013559666   -0.1200
27     C27    -4.2903   -1.8440    4.3151 C.3      1 ZINC000013559666    0.0500
28     C28    -4.1707   -3.2707    3.7740 C.3      1 ZINC000013559666    0.0600
29     N29    -2.6638   -5.6913    3.0937 N.ar     1 ZINC000013559666   -0.5100
30     C30    -2.5660   -6.8986    2.5671 C.ar     1 ZINC000013559666    0.2700
31     N31    -2.6831   -7.1118    1.2748 N.ar     1 ZINC000013559666   -0.4300
32     C32    -3.0912   -6.9248   -2.0661 C.ar     1 ZINC000013559666   -0.0600
33     C33    -2.8658   -8.3568   -1.7861 C.2      1 ZINC000013559666    0.5400
34     N34    -2.8610   -9.2484   -2.7968 N.am     1 ZINC000013559666   -0.8500
35     O35    -2.6844   -8.7317   -0.6439 O.2      1 ZINC000013559666   -0.4900
36     C36    -3.2998   -6.4899   -3.3717 C.ar     1 ZINC000013559666   -0.1200
37     C37    -3.5108   -5.1470   -3.6305 C.ar     1 ZINC000013559666   -0.0700
38     C38    -3.5191   -4.2241   -2.6061 C.ar     1 ZINC000013559666   -0.1200
39     H39     0.1211    2.1083   -0.4180 H        1 ZINC000013559666    0.0800
40     H40    -1.5041    1.9709   -1.1310 H        1 ZINC000013559666    0.0700
41     H41    -1.3071    1.9924    0.6379 H        1 ZINC000013559666    0.0700
42     H42    -0.2990   -0.1936   -1.2388 H        1 ZINC000013559666    0.0700
43     H43    -0.1021   -0.1721    0.5301 H        1 ZINC000013559666    0.0700
44     H44    -3.8629   -2.2605    1.0187 H        1 ZINC000013559666    0.1500
45     H45    -4.1349   -2.1337   -0.7358 H        1 ZINC000013559666    0.1300
46     H46    -1.6332   -3.7109    4.4672 H        1 ZINC000013559666    0.0700
47     H47    -0.9102   -3.0813    2.9671 H        1 ZINC000013559666    0.0800
48     H48    -0.9922   -1.3418    4.7488 H        1 ZINC000013559666    0.0900
49     H49    -1.9940   -0.8940    3.3468 H        1 ZINC000013559666    0.0400
50     H50    -2.2165    0.1156    6.0944 H        1 ZINC000013559666    0.0800
51     H51    -3.4389    0.5629    4.8803 H        1 ZINC000013559666    0.0400
52     H52    -5.2097   -0.4496    6.2902 H        1 ZINC000013559666    0.0800
53     H53    -3.9873   -0.8970    7.5042 H        1 ZINC000013559666    0.0900
54     H54    -2.9023    0.8012    8.8586 H        1 ZINC000013559666    0.1400
55     H55    -3.0786    3.0401    9.8673 H        1 ZINC000013559666    0.1500
56     H56    -5.8411    1.8693    5.9584 H        1 ZINC000013559666    0.1400
57     H57    -5.1476   -1.7800    4.9852 H        1 ZINC000013559666    0.0900
58     H58    -4.4246   -1.1503    3.4851 H        1 ZINC000013559666    0.0400
59     H59    -5.0656   -3.5194    3.2035 H        1 ZINC000013559666    0.0800
60     H60    -4.0638   -3.9672    4.6055 H        1 ZINC000013559666    0.0700
61     H61    -2.3803   -7.7389    3.2196 H        1 ZINC000013559666    0.2000
62     H62    -3.0057   -8.9493   -3.7081 H        1 ZINC000013559666    0.4000
63     H63    -2.7129  -10.1892   -2.6129 H        1 ZINC000013559666    0.4100
64     H64    -3.2967   -7.2016   -4.1841 H        1 ZINC000013559666    0.1400
65     H65    -3.6715   -4.8181   -4.6466 H        1 ZINC000013559666    0.1400
66     H66    -3.6856   -3.1798   -2.8254 H        1 ZINC000013559666    0.1300
@<TRIPOS>BOND
1     1     2     1
2     1     39    1
3     1     40    1
4     1     41    1
5     2     3     1
6     2     42    1
7     2     43    1
8     3     4     1
9     4     5     2
10    4     6     1
11    6     7     1
12    6     44    1
13    6     45    1
14    7     11    1
15    7     8     1
16    8     38    ar
17    8     9     ar
18    9     10    1
19    9     32    ar
20    10    31    ar
21    10    11    ar
22    11    12    ar
23    12    13    1
24    12    29    ar
25    13    28    1
26    13    14    1
27    14    15    1
28    14    46    1
29    14    47    1
30    15    16    1
31    15    48    1
32    15    49    1
33    16    17    1
34    16    27    1
35    17    18    1
36    17    50    1
37    17    51    1
38    18    19    1
39    18    52    1
40    18    53    1
41    19    26    ar
42    19    20    ar
43    20    21    ar
44    20    54    1
45    21    22    ar
46    21    55    1
47    22    23    1
48    22    24    ar
49    24    25    1
50    24    26    ar
51    26    56    1
52    27    28    1
53    27    57    1
54    27    58    1
55    28    59    1
56    28    60    1
57    29    30    ar
58    30    31    ar
59    30    61    1
60    32    33    1
61    32    36    ar
62    33    34    am
63    33    35    2
64    34    62    1
65    34    63    1
66    36    37    ar
67    36    64    1
68    37    38    ar
69    37    65    1
70    38    66    1
@<TRIPOS>SUBSTRUCTURE
1   ZINC000013559666 1     RESIDUE    1   A     ZIN   1
