@<TRIPOS>MOLECULE
ZINC000013538707
  48   50    0    0    0
SMALL
USER_CHARGES
NO_NAME
@<TRIPOS>ATOM
    1 N1        1.0300    -0.4322    -0.7966 N.am   1 <0>      -0.8500
    2 C2       -0.0005    -0.0006    -0.0428 C.2    1 <0>       0.5700
    3 O3        0.1139     1.0117     0.6210 O.2    1 <0>      -0.5400
    4 C4       -1.2674    -0.7566    -0.0229 C.ar   1 <0>      -0.1600
    5 C5       -1.3986    -1.9237    -0.7810 C.ar   1 <0>      -0.0600
    6 C6       -2.5817    -2.6265    -0.7603 C.ar   1 <0>      -0.1200
    7 C7       -3.6469    -2.1764     0.0142 C.ar   1 <0>       0.2000
    8 N8       -4.8426    -2.8897     0.0329 N.pl3  1 <0>      -0.6400
    9 C9       -4.8268    -4.2712    -0.0735 C.ar   1 <0>       0.6300
   10 N10      -3.6640    -4.9046    -0.0756 N.ar   1 <0>      -0.6200
   11 C11      -3.6114    -6.2305    -0.1757 C.ar   1 <0>       0.5000
   12 N12      -2.3907    -6.8870    -0.1768 N.pl3  1 <0>      -0.8300
   13 C13      -4.7996    -6.9495    -0.2790 C.ar   1 <0>      -0.3600
   14 C14      -5.9995    -6.2490    -0.2733 C.ar   1 <0>       0.4300
   15 O15      -7.1797    -6.9084    -0.3711 O.3    1 <0>      -0.2900
   16 C16      -8.3687    -6.1158    -0.3579 C.3    1 <0>       0.0700
   17 C17      -9.5911    -7.0282    -0.4768 C.3    1 <0>      -0.0900
   18 C18      -9.6849    -7.9195     0.7632 C.3    1 <0>      -0.1100
   19 C19     -10.9073    -8.8319     0.6442 C.3    1 <0>      -0.1200
   20 C20     -12.1721    -7.9781     0.5330 C.3    1 <0>      -0.1200
   21 C21     -12.0783    -7.0868    -0.7071 C.3    1 <0>      -0.1200
   22 C22     -10.8559    -6.1744    -0.5881 C.3    1 <0>      -0.1100
   23 N23      -5.9756    -4.9243    -0.1650 N.ar   1 <0>      -0.6400
   24 C24      -3.5194    -1.0148     0.7705 C.ar   1 <0>      -0.1600
   25 C25      -2.3371    -0.3103     0.7584 C.ar   1 <0>      -0.0300
   26 H26       1.8629     0.0648    -0.8097 H      1 <0>       0.4100
   27 H27       0.9401    -1.2420    -1.3230 H      1 <0>       0.4000
   28 H28      -0.5725    -2.2733    -1.3825 H      1 <0>       0.1300
   29 H29      -2.6838    -3.5281    -1.3461 H      1 <0>       0.1400
   30 H30      -5.6865    -2.4196     0.1204 H      1 <0>       0.4300
   31 H31      -1.5671    -6.3797    -0.1042 H      1 <0>       0.4100
   32 H32      -2.3600    -7.8537    -0.2501 H      1 <0>       0.4200
   33 H33      -4.7886    -8.0263    -0.3620 H      1 <0>       0.1500
   34 H34      -8.4222    -5.5567     0.5762 H      1 <0>       0.0700
   35 H35      -8.3513    -5.4205    -1.1971 H      1 <0>       0.0700
   36 H36      -9.4942    -7.6515    -1.3658 H      1 <0>       0.0800
   37 H37      -8.7839    -8.5278     0.8425 H      1 <0>       0.0700
   38 H38      -9.7819    -7.2962     1.6521 H      1 <0>       0.0600
   39 H39     -10.8104    -9.4552    -0.2447 H      1 <0>       0.0600
   40 H40     -10.9742    -9.4668     1.5276 H      1 <0>       0.0600
   41 H41     -13.0430    -8.6281     0.4482 H      1 <0>       0.0600
   42 H42     -12.2691    -7.3548     1.4219 H      1 <0>       0.0600
   43 H43     -11.9813    -7.7101    -1.5960 H      1 <0>       0.0600
   44 H44     -12.9793    -6.4786    -0.7864 H      1 <0>       0.0600
   45 H45     -10.9528    -5.5512     0.3008 H      1 <0>       0.0700
   46 H46     -10.7890    -5.5395    -1.4715 H      1 <0>       0.0700
   47 H47      -4.3476    -0.6683     1.3708 H      1 <0>       0.1300
   48 H48      -2.2387     0.5906     1.3457 H      1 <0>       0.1400
@<TRIPOS>BOND
   1    1    2 am
   2    1   26 1
   3    1   27 1
   4    2    3 2
   5    2    4 1
   6    4   25 ar
   7    4    5 ar
   8    5    6 ar
   9    5   28 1
  10    6    7 ar
  11    6   29 1
  12    7    8 1
  13    7   24 ar
  14    8    9 1
  15    8   30 1
  16    9   23 ar
  17    9   10 ar
  18   10   11 ar
  19   11   12 1
  20   11   13 ar
  21   12   31 1
  22   12   32 1
  23   13   14 ar
  24   13   33 1
  25   14   15 1
  26   14   23 ar
  27   15   16 1
  28   16   17 1
  29   16   34 1
  30   16   35 1
  31   17   22 1
  32   17   18 1
  33   17   36 1
  34   18   19 1
  35   18   37 1
  36   18   38 1
  37   19   20 1
  38   19   39 1
  39   19   40 1
  40   20   21 1
  41   20   41 1
  42   20   42 1
  43   21   22 1
  44   21   43 1
  45   21   44 1
  46   22   45 1
  47   22   46 1
  48   24   25 ar
  49   24   47 1
  50   25   48 1
