@<TRIPOS>MOLECULE
ZINC000018825325
47    50    1     0     0
SMALL
USER_CHARGES
@<TRIPOS>ATOM
1      C1     -0.3467    1.4563   -0.1420 C.3      1 ZINC000018825325    0.0300
2      N2     -0.2653   -0.0103   -0.1208 N.3      1 ZINC000018825325   -0.5300
3      C3     -1.5961   -0.6134   -0.2686 C.3      1 ZINC000018825325    0.0600
4      C4     -1.4585   -2.1328   -0.3882 C.3      1 ZINC000018825325   -0.1200
5      C5     -0.7667   -2.6780    0.8643 C.3      1 ZINC000018825325    0.0000
6      H6     -1.3812   -2.4690    1.7400 H        1 ZINC000018825325    0.0600
7      C7     -0.5759   -4.1665    0.7267 C.2      1 ZINC000018825325   -0.1900
8      C8     -0.9888   -5.0131    1.7363 C.2      1 ZINC000018825325    0.1400
9      O9     -1.5656   -4.5191    2.8522 O.3      1 ZINC000018825325   -0.2000
10     C10    -1.9736   -5.3273    3.8438 C.2      1 ZINC000018825325    0.1900
11     C11    -2.5988   -4.7386    5.0428 C.ar     1 ZINC000018825325   -0.0500
12     C12    -2.0651   -4.9919    6.3091 C.ar     1 ZINC000018825325   -0.0700
13     C13    -2.6547   -4.4376    7.4258 C.ar     1 ZINC000018825325   -0.1200
14     C14    -3.7728   -3.6324    7.2954 C.ar     1 ZINC000018825325   -0.0900
15     C15    -4.3079   -3.3763    6.0455 C.ar     1 ZINC000018825325   -0.1100
16     C16    -3.7256   -3.9192    4.9176 C.ar     1 ZINC000018825325   -0.0100
17     Cl17   -4.3976   -3.5967    3.3498 Cl       1 ZINC000018825325   -0.0400
18     C18    -1.8213   -6.6949    3.7658 C.2      1 ZINC000018825325   -0.2900
19     C19    -1.2306   -7.2644    2.6340 C.2      1 ZINC000018825325    0.2400
20     O20    -1.0711   -8.6024    2.5358 O.3      1 ZINC000018825325   -0.4000
21     C21    -0.8044   -6.4070    1.5958 C.2      1 ZINC000018825325   -0.2000
22     C22    -0.2030   -6.9267    0.4305 C.2      1 ZINC000018825325    0.3200
23     O23    -0.0263   -8.2651    0.2952 O.3      1 ZINC000018825325   -0.6700
24     C24     0.2005   -6.0794   -0.5608 C.2      1 ZINC000018825325   -0.4400
25     C25     0.0148   -4.6938   -0.4271 C.2      1 ZINC000018825325    0.3700
26     O26     0.4123   -3.8746   -1.4020 O.2      1 ZINC000018825325   -0.6000
27     C27     0.5963   -1.9984    1.0216 C.3      1 ZINC000018825325    0.1200
28     H28     1.0755   -2.3510    1.9349 H        1 ZINC000018825325    0.0400
29     O29     1.4200   -2.3154   -0.1023 O.3      1 ZINC000018825325   -0.4900
30     C30     0.3992   -0.4829    1.1004 C.3      1 ZINC000018825325    0.0300
31     H31     0.6584    1.8766   -0.1061 H        1 ZINC000018825325    0.0600
32     H32    -0.8432    1.7795   -1.0570 H        1 ZINC000018825325    0.0600
33     H33    -0.9158    1.8012    0.7213 H        1 ZINC000018825325    0.0200
34     H34    -2.2034   -0.3712    0.6036 H        1 ZINC000018825325    0.0200
35     H35    -2.0754   -0.2204   -1.1652 H        1 ZINC000018825325    0.0700
36     H36    -2.4475   -2.5815   -0.4822 H        1 ZINC000018825325    0.0500
37     H37    -0.8628   -2.3761   -1.2680 H        1 ZINC000018825325    0.1300
38     H38    -1.1931   -5.6205    6.4132 H        1 ZINC000018825325    0.1400
39     H39    -2.2430   -4.6328    8.4050 H        1 ZINC000018825325    0.1400
40     H40    -4.2303   -3.2020    8.1740 H        1 ZINC000018825325    0.1400
41     H41    -5.1808   -2.7473    5.9517 H        1 ZINC000018825325    0.1400
42     H42    -2.1570   -7.3245    4.5765 H        1 ZINC000018825325    0.1500
43     H43    -1.3972   -9.0947    3.3016 H        1 ZINC000018825325    0.3800
44     H44     0.6614   -6.4766   -1.4531 H        1 ZINC000018825325    0.1000
45     H45     2.3006   -1.9173   -0.0693 H        1 ZINC000018825325    0.3400
46     H46     1.3691    0.0049    1.1981 H        1 ZINC000018825325    0.0700
47     H47    -0.2174   -0.2413    1.9661 H        1 ZINC000018825325    0.0300
@<TRIPOS>BOND
1     1     2     1
2     1     31    1
3     1     32    1
4     1     33    1
5     2     30    1
6     2     3     1
7     3     4     1
8     3     34    1
9     3     35    1
10    4     5     1
11    4     36    1
12    4     37    1
13    5     6     1
14    5     7     1
15    5     27    1
16    7     25    1
17    7     8     2
18    8     21    1
19    8     9     1
20    9     10    1
21    10    11    1
22    10    18    2
23    11    16    ar
24    11    12    ar
25    12    13    ar
26    12    38    1
27    13    14    ar
28    13    39    1
29    14    15    ar
30    14    40    1
31    15    16    ar
32    15    41    1
33    16    17    1
34    18    19    1
35    18    42    1
36    19    20    1
37    19    21    2
38    20    43    1
39    21    22    1
40    22    23    1
41    22    24    2
42    24    25    1
43    24    44    1
44    25    26    2
45    27    28    1
46    27    29    1
47    27    30    1
48    29    45    1
49    30    46    1
50    30    47    1
@<TRIPOS>SUBSTRUCTURE
1   ZINC000018825325 1     RESIDUE    1   A     ZIN   1
