@<TRIPOS>MOLECULE
ZINC000206099800
58    62    1     0     0
SMALL
USER_CHARGES
@<TRIPOS>ATOM
1      C1     -1.6540    1.4135    1.2771 C.3      1 ZINC000206099800   -0.1300
2      C2     -1.0304    0.0794    0.9571 C.ar     1 ZINC000206099800   -0.0500
3      C3     -1.3713   -0.5807   -0.2081 C.ar     1 ZINC000206099800   -0.1100
4      C4     -0.7986   -1.8057   -0.5019 C.ar     1 ZINC000206099800   -0.0200
5      Cl5    -1.2259   -2.6353   -1.9657 Cl       1 ZINC000206099800   -0.0700
6      C6      0.1148   -2.3687    0.3712 C.ar     1 ZINC000206099800   -0.1100
7      C7      0.4549   -1.7074    1.5365 C.ar     1 ZINC000206099800   -0.0700
8      C8     -0.1132   -0.4812    1.8266 C.ar     1 ZINC000206099800   -0.1000
9      C9      0.2581    0.2392    3.0971 C.3      1 ZINC000206099800    0.2700
10     H10    -0.4154    1.0806    3.2603 H        1 ZINC000206099800    0.1100
11     C11     1.6804    0.7236    3.0195 C.2      1 ZINC000206099800   -0.2200
12     C12     2.5871    1.4926    2.3911 C.2      1 ZINC000206099800    0.1000
13     C13     2.3386    2.3723    1.1930 C.3      1 ZINC000206099800   -0.0200
14     C14     1.8870    1.5104    0.0123 C.3      1 ZINC000206099800   -0.1600
15     C15     1.2480    3.3922    1.5265 C.3      1 ZINC000206099800   -0.1400
16     N16     3.7638    1.3286    3.0372 N.pl3    1 ZINC000206099800   -0.2700
17     C17     5.0190    1.9910    2.6744 C.3      1 ZINC000206099800    0.1800
18     C18     5.1919    3.2325    3.5110 C.ar     1 ZINC000206099800    0.0900
19     C19     6.3247    3.3798    4.2885 C.ar     1 ZINC000206099800   -0.1500
20     C20     6.4744    4.5261    5.0543 C.ar     1 ZINC000206099800   -0.0700
21     C21     5.4744    5.4852    5.0087 C.ar     1 ZINC000206099800   -0.1600
22     C22     4.3693    5.2685    4.2073 C.ar     1 ZINC000206099800    0.1000
23     N23     4.2629    4.1683    3.4884 N.ar     1 ZINC000206099800   -0.4600
24     N24     3.6213    0.5076    4.0166 N.2      1 ZINC000206099800   -0.2100
25     C25     2.3743    0.0880    4.0783 C.2      1 ZINC000206099800   -0.0400
26     C26     1.4159   -0.7688    4.7971 C.2      1 ZINC000206099800    0.6200
27     O27     1.6883   -1.4551    5.7631 O.2      1 ZINC000206099800   -0.4900
28     N28     0.1962   -0.6839    4.2362 N.am     1 ZINC000206099800   -0.5600
29     C29    -0.9464   -1.3672    4.6687 C.ar     1 ZINC000206099800    0.1300
30     C30    -1.8797   -0.7242    5.4701 C.ar     1 ZINC000206099800   -0.0800
31     C31    -3.0070   -1.4005    5.8956 C.ar     1 ZINC000206099800   -0.1100
32     C32    -3.2074   -2.7171    5.5250 C.ar     1 ZINC000206099800   -0.0700
33     C33    -2.2798   -3.3633    4.7264 C.ar     1 ZINC000206099800   -0.0700
34     Cl34   -2.5355   -5.0168    4.2635 Cl       1 ZINC000206099800   -0.0400
35     C35    -1.1517   -2.6900    4.2918 C.ar     1 ZINC000206099800    0.1300
36     F36    -0.2458   -3.3200    3.5123 F        1 ZINC000206099800   -0.1100
37     H37    -0.9903    2.2131    0.9480 H        1 ZINC000206099800    0.0900
38     H38    -2.6107    1.5003    0.7621 H        1 ZINC000206099800    0.0800
39     H39    -1.8119    1.4921    2.3528 H        1 ZINC000206099800    0.0700
40     H40    -2.0847   -0.1408   -0.8892 H        1 ZINC000206099800    0.1400
41     H41     0.5618   -3.3249    0.1426 H        1 ZINC000206099800    0.1300
42     H42     1.1680   -2.1469    2.2182 H        1 ZINC000206099800    0.1300
43     H43     3.2577    2.8960    0.9299 H        1 ZINC000206099800    0.0800
44     H44     1.0013    0.9417    0.2955 H        1 ZINC000206099800    0.0700
45     H45     1.6507    2.1520   -0.8366 H        1 ZINC000206099800    0.0700
46     H46     2.6872    0.8234   -0.2631 H        1 ZINC000206099800    0.0500
47     H47     1.6057    4.0648    2.3061 H        1 ZINC000206099800    0.0700
48     H48     1.0037    3.9680    0.6338 H        1 ZINC000206099800    0.0600
49     H49     0.3576    2.8704    1.8773 H        1 ZINC000206099800    0.0600
50     H50     5.8531    1.3127    2.8542 H        1 ZINC000206099800    0.1200
51     H51     4.9939    2.2643    1.6195 H        1 ZINC000206099800    0.1200
52     H52     7.0838    2.6116    4.2999 H        1 ZINC000206099800    0.1400
53     H53     7.3490    4.6682    5.6717 H        1 ZINC000206099800    0.1400
54     H54     5.5576    6.3901    5.5924 H        1 ZINC000206099800    0.1400
55     H55     3.5857    6.0106    4.1665 H        1 ZINC000206099800    0.1600
56     H56    -1.7246    0.3042    5.7612 H        1 ZINC000206099800    0.1500
57     H57    -3.7328   -0.8996    6.5190 H        1 ZINC000206099800    0.1500
58     H58    -4.0895   -3.2427    5.8597 H        1 ZINC000206099800    0.1500
@<TRIPOS>BOND
1     1     2     1
2     1     37    1
3     1     38    1
4     1     39    1
5     2     8     ar
6     2     3     ar
7     3     4     ar
8     3     40    1
9     4     5     1
10    4     6     ar
11    6     7     ar
12    6     41    1
13    7     8     ar
14    7     42    1
15    8     9     1
16    9     10    1
17    9     28    1
18    9     11    1
19    11    25    1
20    11    12    2
21    12    13    1
22    12    16    1
23    13    14    1
24    13    15    1
25    13    43    1
26    14    44    1
27    14    45    1
28    14    46    1
29    15    47    1
30    15    48    1
31    15    49    1
32    16    17    1
33    16    24    1
34    17    18    1
35    17    50    1
36    17    51    1
37    18    23    ar
38    18    19    ar
39    19    20    ar
40    19    52    1
41    20    21    ar
42    20    53    1
43    21    22    ar
44    21    54    1
45    22    23    ar
46    22    55    1
47    24    25    2
48    25    26    1
49    26    27    2
50    26    28    am
51    28    29    1
52    29    35    ar
53    29    30    ar
54    30    31    ar
55    30    56    1
56    31    32    ar
57    31    57    1
58    32    33    ar
59    32    58    1
60    33    34    1
61    33    35    ar
62    35    36    1
@<TRIPOS>SUBSTRUCTURE
1   ZINC000206099800 1     RESIDUE    1   A     ZIN   1
