@<TRIPOS>MOLECULE
ZINC000013489181
50    52    1     0     0
SMALL
USER_CHARGES
@<TRIPOS>ATOM
1      C1     -0.0178    1.4608    0.0101 C.3      1 ZINC000013489181    0.0900
2      N2      0.0021   -0.0041    0.0020 N.pl3    1 ZINC000013489181   -0.6300
3      C3      1.2806   -0.7192   -0.0140 C.3      1 ZINC000013489181    0.0900
4      C4     -1.1961   -0.7178    0.0096 C.ar     1 ZINC000013489181    0.2300
5      C5     -1.1760   -2.1082    0.0077 C.ar     1 ZINC000013489181   -0.2100
6      C6     -2.3587   -2.8155    0.0148 C.ar     1 ZINC000013489181   -0.0300
7      C7     -3.5766   -2.1357    0.0243 C.ar     1 ZINC000013489181   -0.1200
8      C8     -4.8499   -2.8941    0.0324 C.ar     1 ZINC000013489181    0.2200
9      N9     -4.8128   -4.2282    0.0359 N.ar     1 ZINC000013489181   -0.5500
10     C10    -5.9040   -4.9644    0.0431 C.ar     1 ZINC000013489181    0.3800
11     O11    -5.8088   -6.3156    0.0468 O.3      1 ZINC000013489181   -0.3000
12     C12    -4.4932   -6.8733    0.0425 C.3      1 ZINC000013489181    0.0700
13     C13    -4.5866   -8.4005    0.0476 C.3      1 ZINC000013489181   -0.1200
14     C14    -3.1779   -8.9976    0.0431 C.3      1 ZINC000013489181   -0.1500
15     C15    -3.2713  -10.5247    0.0482 C.3      1 ZINC000013489181   -0.0100
16     N16    -1.9188  -11.0980    0.0438 N.4      1 ZINC000013489181   -0.6400
17     H17    -1.9804  -12.1051    0.0472 H        1 ZINC000013489181    0.4400
18     H18    -1.4273  -10.7939   -0.7832 H        1 ZINC000013489181    0.4400
19     H19    -1.4198  -10.7888    0.8644 H        1 ZINC000013489181    0.4400
20     C20    -7.1723   -4.3471    0.0474 C.ar     1 ZINC000013489181   -0.1800
21     C21    -8.3610   -5.0926    0.0557 C.ar     1 ZINC000013489181   -0.0200
22     C22    -9.5480   -4.4121    0.0598 C.ar     1 ZINC000013489181   -0.1900
23     C23    -9.5531   -3.0202    0.0553 C.ar     1 ZINC000013489181    0.1700
24     N24    -8.4389   -2.3257    0.0476 N.ar     1 ZINC000013489181   -0.4800
25     C25    -7.2493   -2.9303    0.0438 C.ar     1 ZINC000013489181    0.1900
26     C26    -6.0469   -2.2022    0.0418 C.ar     1 ZINC000013489181   -0.1800
27     C27    -3.5943   -0.7410    0.0267 C.ar     1 ZINC000013489181   -0.0400
28     C28    -2.4091   -0.0379    0.0249 C.ar     1 ZINC000013489181   -0.2000
29     H29     1.0048    1.8381    0.0023 H        1 ZINC000013489181    0.0800
30     H30    -0.5450    1.8219   -0.8730 H        1 ZINC000013489181    0.0600
31     H31    -0.5280    1.8123    0.9069 H        1 ZINC000013489181    0.0600
32     H32     1.6074   -0.9021    1.0096 H        1 ZINC000013489181    0.0500
33     H33     1.1583   -1.6705   -0.5318 H        1 ZINC000013489181    0.0700
34     H34     2.0272   -0.1171   -0.5318 H        1 ZINC000013489181    0.0700
35     H35    -0.2328   -2.6342    0.0003 H        1 ZINC000013489181    0.1200
36     H36    -2.3426   -3.8954    0.0125 H        1 ZINC000013489181    0.1300
37     H37    -3.9622   -6.5448   -0.8509 H        1 ZINC000013489181    0.0700
38     H38    -3.9541   -6.5393    0.9290 H        1 ZINC000013489181    0.0700
39     H39    -5.1176   -8.7290    0.9411 H        1 ZINC000013489181    0.0900
40     H40    -5.1257   -8.7345   -0.8389 H        1 ZINC000013489181    0.0900
41     H41    -2.6469   -8.6690   -0.8504 H        1 ZINC000013489181    0.0900
42     H42    -2.6388   -8.6636    0.9296 H        1 ZINC000013489181    0.0900
43     H43    -3.8023  -10.8533    0.9416 H        1 ZINC000013489181    0.1400
44     H44    -3.8104  -10.8587   -0.8383 H        1 ZINC000013489181    0.1400
45     H45    -8.3396   -6.1724    0.0583 H        1 ZINC000013489181    0.1500
46     H46   -10.4815   -4.9553    0.0662 H        1 ZINC000013489181    0.1500
47     H47   -10.4983   -2.4978    0.0579 H        1 ZINC000013489181    0.1700
48     H48    -6.0579   -1.1222    0.0430 H        1 ZINC000013489181    0.1500
49     H49    -4.5362   -0.2126    0.0337 H        1 ZINC000013489181    0.1300
50     H50    -2.4223    1.0420    0.0271 H        1 ZINC000013489181    0.1300
@<TRIPOS>BOND
1     1     2     1
2     1     29    1
3     1     30    1
4     1     31    1
5     2     3     1
6     2     4     1
7     3     32    1
8     3     33    1
9     3     34    1
10    4     28    ar
11    4     5     ar
12    5     6     ar
13    5     35    1
14    6     7     ar
15    6     36    1
16    7     8     1
17    7     27    ar
18    8     26    ar
19    8     9     ar
20    9     10    ar
21    10    11    1
22    10    20    ar
23    11    12    1
24    12    13    1
25    12    37    1
26    12    38    1
27    13    14    1
28    13    39    1
29    13    40    1
30    14    15    1
31    14    41    1
32    14    42    1
33    15    16    1
34    15    43    1
35    15    44    1
36    16    17    1
37    16    18    1
38    16    19    1
39    20    25    ar
40    20    21    ar
41    21    22    ar
42    21    45    1
43    22    23    ar
44    22    46    1
45    23    24    ar
46    23    47    1
47    24    25    ar
48    25    26    ar
49    26    48    1
50    27    28    ar
51    27    49    1
52    28    50    1
@<TRIPOS>SUBSTRUCTURE
1   ZINC000013489181 1     RESIDUE    1   A     ZIN   1
