@<TRIPOS>MOLECULE
ZINC000043131434
48    50    1     0     0
SMALL
USER_CHARGES
@<TRIPOS>ATOM
1      C1     -0.0225    1.8097    0.0120 C.3      1 ZINC000043131434   -0.6700
2      S2      0.0021   -0.0041    0.0020 S.o2     1 ZINC000043131434    2.6100
3      O3      0.8448   -0.4970    1.0346 O.2      1 ZINC000043131434   -0.9500
4      O4     -1.3093   -0.5195   -0.1821 O.2      1 ZINC000043131434   -0.9500
5      N5      0.7961   -0.3989   -1.3965 N.am     1 ZINC000043131434   -1.0000
6      C6      0.0550   -0.5829   -2.6518 C.3      1 ZINC000043131434    0.1300
7      C7      0.6756    0.3146   -3.7270 C.3      1 ZINC000043131434   -0.1500
8      C8      2.1732    0.0171   -3.8319 C.3      1 ZINC000043131434    0.1500
9      N9      2.7638    0.8503   -4.8823 N.am     1 ZINC000043131434   -0.7100
10     C10     3.8894    0.4503   -5.5064 C.2      1 ZINC000043131434    0.6100
11     O11     4.4146   -0.6020   -5.1978 O.2      1 ZINC000043131434   -0.5400
12     C12     4.4841    1.2891   -6.5640 C.2      1 ZINC000043131434   -0.0300
13     N13     4.0274    2.4495   -6.9941 N.2      1 ZINC000043131434   -0.2400
14     N14     4.7859    2.9094   -7.9231 N.pl3    1 ZINC000043131434   -0.3700
15     C15     5.8110    2.0510   -8.1598 C.2      1 ZINC000043131434   -0.0200
16     C16     5.6589    1.0032   -7.3067 C.2      1 ZINC000043131434    0.0900
17     N17     6.4836   -0.1257   -7.1914 N.am     1 ZINC000043131434   -0.6200
18     C18     7.5663   -0.2531   -7.9840 C.2      1 ZINC000043131434    0.5700
19     O19     7.8282    0.6106   -8.7989 O.2      1 ZINC000043131434   -0.5000
20     C20     8.4344   -1.4414   -7.8627 C.ar     1 ZINC000043131434   -0.1100
21     C21     8.1797   -2.5789   -8.6336 C.ar     1 ZINC000043131434    0.0000
22     Cl22    6.8405   -2.5997   -9.7381 Cl       1 ZINC000043131434   -0.0400
23     C23     8.9963   -3.6861   -8.5149 C.ar     1 ZINC000043131434   -0.1100
24     C24    10.0642   -3.6713   -7.6357 C.ar     1 ZINC000043131434   -0.0700
25     C25    10.3225   -2.5493   -6.8689 C.ar     1 ZINC000043131434   -0.1100
26     C26     9.5183   -1.4322   -6.9806 C.ar     1 ZINC000043131434    0.0000
27     Cl27    9.8444   -0.0254   -6.0172 Cl       1 ZINC000043131434   -0.0400
28     C28     2.8511    0.3255   -2.4949 C.3      1 ZINC000043131434   -0.1500
29     C29     2.2558   -0.5658   -1.4070 C.3      1 ZINC000043131434    0.1200
30     H30     1.0001    2.1870    0.0043 H        1 ZINC000043131434    0.1300
31     H31    -0.5497    2.1708   -0.8711 H        1 ZINC000043131434    0.1300
32     H32    -0.5327    2.1613    0.9088 H        1 ZINC000043131434    0.1300
33     H33     0.1188   -1.6252   -2.9643 H        1 ZINC000043131434    0.0800
34     H34    -0.9890   -0.3070   -2.5035 H        1 ZINC000043131434    0.1000
35     H35     0.1974    0.1169   -4.6863 H        1 ZINC000043131434    0.0900
36     H36     0.5305    1.3604   -3.4562 H        1 ZINC000043131434    0.0700
37     H37     2.3181   -1.0347   -4.0782 H        1 ZINC000043131434    0.1000
38     H38     2.3448    1.6897   -5.1285 H        1 ZINC000043131434    0.4100
39     H39     4.6463    3.7488   -8.3887 H        1 ZINC000043131434    0.4500
40     H40     6.6007    2.1787   -8.8854 H        1 ZINC000043131434    0.2100
41     H41     6.2747   -0.8146   -6.5414 H        1 ZINC000043131434    0.4300
42     H42     8.8006   -4.5660   -9.1098 H        1 ZINC000043131434    0.1500
43     H43    10.6994   -4.5403   -7.5473 H        1 ZINC000043131434    0.1500
44     H44    11.1579   -2.5454   -6.1844 H        1 ZINC000043131434    0.1500
45     H45     3.9213    0.1358   -2.5774 H        1 ZINC000043131434    0.0800
46     H46     2.6855    1.3712   -2.2357 H        1 ZINC000043131434    0.0700
47     H47     2.6644   -0.2814   -0.4374 H        1 ZINC000043131434    0.1000
48     H48     2.4970   -1.6081   -1.6160 H        1 ZINC000043131434    0.0800
@<TRIPOS>BOND
1     1     2     1
2     1     30    1
3     1     31    1
4     1     32    1
5     2     3     2
6     2     4     2
7     2     5     am
8     5     29    1
9     5     6     1
10    6     7     1
11    6     33    1
12    6     34    1
13    7     8     1
14    7     35    1
15    7     36    1
16    8     9     1
17    8     28    1
18    8     37    1
19    9     10    am
20    9     38    1
21    10    11    2
22    10    12    1
23    12    16    1
24    12    13    2
25    13    14    1
26    14    15    1
27    14    39    1
28    15    16    2
29    15    40    1
30    16    17    1
31    17    18    am
32    17    41    1
33    18    19    2
34    18    20    1
35    20    26    ar
36    20    21    ar
37    21    22    1
38    21    23    ar
39    23    24    ar
40    23    42    1
41    24    25    ar
42    24    43    1
43    25    26    ar
44    25    44    1
45    26    27    1
46    28    29    1
47    28    45    1
48    28    46    1
49    29    47    1
50    29    48    1
@<TRIPOS>SUBSTRUCTURE
1   ZINC000043131434 1     RESIDUE    1   A     ZIN   1
