@<TRIPOS>MOLECULE
ZINC000205767906
50    53    1     0     0
SMALL
USER_CHARGES
@<TRIPOS>ATOM
1      C1     -0.0223    1.4247    0.0133 C.3      1 ZINC000205767906    0.0200
2      O2     -0.0018   -0.0041    0.0047 O.3      1 ZINC000205767906   -0.2800
3      C3      0.6287   -0.6173    1.0378 C.ar     1 ZINC000205767906    0.2100
4      C4      1.2108    0.1355    2.0421 C.ar     1 ZINC000205767906   -0.2200
5      C5      1.8566   -0.5007    3.0997 C.ar     1 ZINC000205767906    0.0900
6      C6      2.4811    0.3044    4.1770 C.2      1 ZINC000205767906   -0.2300
7      C7      3.1481   -0.1818    5.2651 C.2      1 ZINC000205767906    0.1000
8      N8      3.5583    0.8727    5.9962 N.pl3    1 ZINC000205767906   -0.4700
9      N9      3.1391    2.0428    5.3518 N.2      1 ZINC000205767906   -0.2900
10     C10     2.5001    1.7111    4.2618 C.2      1 ZINC000205767906    0.0700
11     C11     1.9168   -1.8950    3.1479 C.ar     1 ZINC000205767906   -0.1700
12     C12     1.3446   -2.6438    2.1604 C.ar     1 ZINC000205767906   -0.0400
13     C13     0.6885   -2.0186    1.0955 C.ar     1 ZINC000205767906   -0.2000
14     C14     0.0716   -2.8283    0.0308 C.2      1 ZINC000205767906    0.5700
15     O15    -0.4988   -2.2830   -0.8948 O.2      1 ZINC000205767906   -0.5000
16     N16     0.1392   -4.1734    0.0823 N.am     1 ZINC000205767906   -0.6800
17     C17    -0.5285   -4.9442   -0.8748 C.ar     1 ZINC000205767906    0.1700
18     C18    -1.0989   -6.1581   -0.5149 C.ar     1 ZINC000205767906   -0.1400
19     C19    -1.7578   -6.9201   -1.4615 C.ar     1 ZINC000205767906   -0.0800
20     C20    -1.8455   -6.4672   -2.7652 C.ar     1 ZINC000205767906   -0.1300
21     C21    -2.5663   -7.3016   -3.8049 C.3      1 ZINC000205767906   -0.0900
22     C22    -3.8565   -6.5726   -4.1929 C.3      1 ZINC000205767906   -0.0100
23     N23    -3.6091   -5.5951   -5.2376 N.4      1 ZINC000205767906   -0.5000
24     H24    -3.1099   -6.0518   -5.9861 H        1 ZINC000205767906    0.4200
25     H25    -4.4993   -5.2844   -5.5970 H        1 ZINC000205767906    0.4300
26     C26    -2.8518   -4.4240   -4.8338 C.3      1 ZINC000205767906   -0.0100
27     C27    -1.3887   -4.7833   -4.5567 C.3      1 ZINC000205767906   -0.1000
28     C28    -1.2831   -5.2658   -3.1240 C.ar     1 ZINC000205767906   -0.0900
29     C29    -0.6268   -4.4934   -2.1862 C.ar     1 ZINC000205767906   -0.1100
30     H30     0.9999    1.8028   -0.0015 H        1 ZINC000205767906    0.0600
31     H31    -0.5560    1.7857   -0.8658 H        1 ZINC000205767906    0.1000
32     H32    -0.5264    1.7754    0.9139 H        1 ZINC000205767906    0.0600
33     H33     1.1650    1.2139    2.0060 H        1 ZINC000205767906    0.1400
34     H34     3.3158   -1.2231    5.4977 H        1 ZINC000205767906    0.1900
35     H35     4.0579    0.8289    6.8265 H        1 ZINC000205767906    0.4500
36     H36     2.0575    2.3952    3.5529 H        1 ZINC000205767906    0.1900
37     H37     2.4187   -2.3831    3.9702 H        1 ZINC000205767906    0.1300
38     H38     1.3952   -3.7217    2.2038 H        1 ZINC000205767906    0.1300
39     H39     0.6509   -4.6068    0.7831 H        1 ZINC000205767906    0.4100
40     H40    -1.0275   -6.5070    0.5047 H        1 ZINC000205767906    0.1300
41     H41    -2.2015   -7.8649   -1.1844 H        1 ZINC000205767906    0.1300
42     H42    -1.9330   -7.4213   -4.6839 H        1 ZINC000205767906    0.0900
43     H43    -2.8075   -8.2797   -3.3887 H        1 ZINC000205767906    0.1200
44     H44    -4.5854   -7.3004   -4.5493 H        1 ZINC000205767906    0.1400
45     H45    -4.2583   -6.0651   -3.3159 H        1 ZINC000205767906    0.1300
46     H46    -2.8930   -3.6796   -5.6290 H        1 ZINC000205767906    0.1400
47     H47    -3.2948   -4.0056   -3.9300 H        1 ZINC000205767906    0.1300
48     H48    -1.0693   -5.5741   -5.2355 H        1 ZINC000205767906    0.1000
49     H49    -0.7611   -3.9030   -4.6955 H        1 ZINC000205767906    0.1200
50     H50    -0.1895   -3.5477   -2.4704 H        1 ZINC000205767906    0.1500
@<TRIPOS>BOND
1     1     2     1
2     1     30    1
3     1     31    1
4     1     32    1
5     2     3     1
6     3     13    ar
7     3     4     ar
8     4     5     ar
9     4     33    1
10    5     6     1
11    5     11    ar
12    6     10    1
13    6     7     2
14    7     8     1
15    7     34    1
16    8     9     1
17    8     35    1
18    9     10    2
19    10    36    1
20    11    12    ar
21    11    37    1
22    12    13    ar
23    12    38    1
24    13    14    1
25    14    15    2
26    14    16    am
27    16    17    1
28    16    39    1
29    17    29    ar
30    17    18    ar
31    18    19    ar
32    18    40    1
33    19    20    ar
34    19    41    1
35    20    28    ar
36    20    21    1
37    21    22    1
38    21    42    1
39    21    43    1
40    22    23    1
41    22    44    1
42    22    45    1
43    23    24    1
44    23    25    1
45    23    26    1
46    26    27    1
47    26    46    1
48    26    47    1
49    27    28    1
50    27    48    1
51    27    49    1
52    28    29    ar
53    29    50    1
@<TRIPOS>SUBSTRUCTURE
1   ZINC000205767906 1     RESIDUE    1   A     ZIN   1
