@<TRIPOS>MOLECULE
ZINC000001586981
24    26    1     0     0
SMALL
USER_CHARGES
@<TRIPOS>ATOM
1      C1     -0.0171    1.4127    0.0098 C.2      1 ZINC000001586981   -0.1600
2      C2      1.2687    1.8432   -0.0002 C.2      1 ZINC000001586981    0.1500
3      C3      1.6966    3.2586    0.0038 C.ar     1 ZINC000001586981   -0.0400
4      C4      0.7443    4.2786    0.0247 C.ar     1 ZINC000001586981   -0.0900
5      C5      1.1502    5.5972    0.0287 C.ar     1 ZINC000001586981   -0.1100
6      C6      2.4980    5.9092    0.0122 C.ar     1 ZINC000001586981   -0.1100
7      C7      3.4472    4.9028   -0.0086 C.ar     1 ZINC000001586981   -0.1100
8      C8      3.0546    3.5802   -0.0075 C.ar     1 ZINC000001586981   -0.1100
9      N9      2.1132    0.7562   -0.0141 N.pl3    1 ZINC000001586981   -0.5600
10     C10     1.3589   -0.3936   -0.0130 C.ar     1 ZINC000001586981    0.2400
11     N11     1.6694   -1.6823   -0.0235 N.ar     1 ZINC000001586981   -0.4500
12     C12     0.7111   -2.5907   -0.0199 C.ar     1 ZINC000001586981    0.0900
13     C13    -0.6225   -2.2099   -0.0052 C.ar     1 ZINC000001586981    0.0400
14     N14    -0.9527   -0.9331    0.0050 N.ar     1 ZINC000001586981   -0.4000
15     C15     0.0021   -0.0041    0.0020 C.ar     1 ZINC000001586981    0.0600
16     H16    -0.8979    2.0376    0.0256 H        1 ZINC000001586981    0.1600
17     H17    -0.3081    4.0363    0.0373 H        1 ZINC000001586981    0.1300
18     H18     0.4143    6.3875    0.0445 H        1 ZINC000001586981    0.1300
19     H19     2.8106    6.9430    0.0151 H        1 ZINC000001586981    0.1300
20     H20     4.4977    5.1530   -0.0218 H        1 ZINC000001586981    0.1300
21     H21     3.7965    2.7955   -0.0233 H        1 ZINC000001586981    0.1200
22     H22     3.0824    0.7950   -0.0236 H        1 ZINC000001586981    0.4200
23     H23     0.9680   -3.6396   -0.0289 H        1 ZINC000001586981    0.1800
24     H24    -1.3956   -2.9640   -0.0024 H        1 ZINC000001586981    0.1800
@<TRIPOS>BOND
1     1     15    1
2     1     2     2
3     1     16    1
4     2     3     1
5     2     9     1
6     3     8     ar
7     3     4     ar
8     4     5     ar
9     4     17    1
10    5     6     ar
11    5     18    1
12    6     7     ar
13    6     19    1
14    7     8     ar
15    7     20    1
16    8     21    1
17    9     10    1
18    9     22    1
19    10    15    ar
20    10    11    ar
21    11    12    ar
22    12    13    ar
23    12    23    1
24    13    14    ar
25    13    24    1
26    14    15    ar
@<TRIPOS>SUBSTRUCTURE
1   ZINC000001586981 1     RESIDUE    1   A     ZIN   1
