@<TRIPOS>MOLECULE
ZINC000040917333
  41   45    0    0    0
SMALL
USER_CHARGES
NO_NAME
@<TRIPOS>ATOM
    1 O1       -0.0164     1.3557     0.0095 O.3    1 <0>      -0.5000
    2 C2        0.0021    -0.0041     0.0020 C.ar   1 <0>       0.0800
    3 C3        0.0057    -0.6907    -1.2093 C.ar   1 <0>      -0.1100
    4 C4        0.0238    -2.0679    -1.2355 C.ar   1 <0>      -0.1200
    5 C5        0.0392    -2.7864    -0.0452 C.ar   1 <0>       0.1000
    6 N6        0.0585    -4.1356     0.2419 N.pl3  1 <0>      -0.5900
    7 C7        0.0677    -4.3213     1.6047 C.2    1 <0>       0.1200
    8 C8        0.0889    -5.6338     2.2865 C.ar   1 <0>      -0.0700
    9 C9        0.1067    -6.8177     1.5449 C.ar   1 <0>      -0.0700
   10 C10       0.1263    -8.0302     2.2386 C.ar   1 <0>      -0.0700
   11 C11       0.1461    -9.3144     1.5048 C.2    1 <0>       0.1200
   12 C12       0.1605   -10.5428     2.0790 C.2    1 <0>      -0.1700
   13 C13       0.1766   -11.5214     0.9929 C.ar   1 <0>      -0.0900
   14 C14       0.1955   -12.9186     0.9509 C.ar   1 <0>      -0.0900
   15 C15       0.2081   -13.5642    -0.2692 C.ar   1 <0>       0.0800
   16 O16       0.2265   -14.9232    -0.3161 O.3    1 <0>      -0.5000
   17 C17       0.2017   -12.8297    -1.4521 C.ar   1 <0>      -0.1100
   18 C18       0.1836   -11.4526    -1.4233 C.ar   1 <0>      -0.1200
   19 C19       0.1706   -10.7822    -0.2052 C.ar   1 <0>       0.1000
   20 N20       0.1469    -9.4456     0.1356 N.pl3  1 <0>      -0.5900
   21 C21       0.1273    -8.0120     3.6347 C.ar   1 <0>       0.1300
   22 N22       0.1097    -6.8727     4.2959 N.ar   1 <0>      -0.4600
   23 C23       0.0972    -5.7078     3.6808 C.ar   1 <0>       0.1300
   24 C24       0.0547    -3.1168     2.2275 C.2    1 <0>      -0.1700
   25 C25       0.0361    -2.0957     1.1814 C.ar   1 <0>      -0.0900
   26 C26       0.0228    -0.6978     1.1953 C.ar   1 <0>      -0.0900
   27 H27       0.8616     1.7610     0.0033 H      1 <0>       0.3900
   28 H28      -0.0062    -0.1383    -2.1372 H      1 <0>       0.1300
   29 H29       0.0257    -2.5898    -2.1811 H      1 <0>       0.1300
   30 H30       0.0644    -4.8465    -0.4181 H      1 <0>       0.4100
   31 H31       0.1050    -6.7961     0.4651 H      1 <0>       0.1300
   32 H32       0.1606   -10.7575     3.1374 H      1 <0>       0.1600
   33 H33       0.2005   -13.4895     1.8677 H      1 <0>       0.1300
   34 H34      -0.6515   -15.3280    -0.3325 H      1 <0>       0.3900
   35 H35       0.2113   -13.3446    -2.4014 H      1 <0>       0.1300
   36 H36       0.1794   -10.8934    -2.3472 H      1 <0>       0.1300
   37 H37       0.1340    -8.7090    -0.4954 H      1 <0>       0.4100
   38 H38       0.1423    -8.9442     4.1797 H      1 <0>       0.1700
   39 H39       0.0829    -4.7980     4.2627 H      1 <0>       0.1700
   40 H40       0.0577    -2.9446     3.2937 H      1 <0>       0.1600
   41 H41       0.0257    -0.1638     2.1341 H      1 <0>       0.1300
@<TRIPOS>BOND
   1    1    2 1
   2    1   27 1
   3    2   26 ar
   4    2    3 ar
   5    3    4 ar
   6    3   28 1
   7    4    5 ar
   8    4   29 1
   9    5   25 ar
  10    5    6 1
  11    6    7 1
  12    6   30 1
  13    7    8 1
  14    7   24 2
  15    8   23 ar
  16    8    9 ar
  17    9   10 ar
  18    9   31 1
  19   10   11 1
  20   10   21 ar
  21   11   20 1
  22   11   12 2
  23   12   13 1
  24   12   32 1
  25   13   19 ar
  26   13   14 ar
  27   14   15 ar
  28   14   33 1
  29   15   16 1
  30   15   17 ar
  31   16   34 1
  32   17   18 ar
  33   17   35 1
  34   18   19 ar
  35   18   36 1
  36   19   20 1
  37   20   37 1
  38   21   22 ar
  39   21   38 1
  40   22   23 ar
  41   23   39 1
  42   24   25 1
  43   24   40 1
  44   25   26 ar
  45   26   41 1
