@<TRIPOS>MOLECULE
ZINC000002224466
  44   45    0    0    0
SMALL
USER_CHARGES
NO_NAME
@<TRIPOS>ATOM
    1 C1       -0.0157     1.3058     0.0092 C.2    1 <0>      -0.1500
    2 C2        0.0021    -0.0041     0.0020 C.2    1 <0>      -0.1900
    3 C3        1.3172    -0.7397    -0.0145 C.3    1 <0>       0.1500
    4 N4        1.3674    -1.6756     1.1115 N.am   1 <0>      -0.6600
    5 C5        2.4568    -2.4468     1.2987 C.2    1 <0>       0.5900
    6 S6        3.7818    -2.3328     0.2207 S.2    1 <0>      -0.6100
    7 N7        2.5029    -3.3078     2.3346 N.am   1 <0>      -0.5400
    8 N8        1.4186    -3.4011     3.2168 N.2    1 <0>      -0.2900
    9 C9        1.4631    -4.2302     4.2143 C.2    1 <0>       0.1600
   10 C10       0.3219    -4.3284     5.1427 C.ar   1 <0>      -0.1100
   11 C11      -0.8107    -3.5341     4.9472 C.ar   1 <0>      -0.0200
   12 C12      -1.8753    -3.6296     5.8174 C.ar   1 <0>      -0.2200
   13 C13      -1.8233    -4.5136     6.8871 C.ar   1 <0>       0.1900
   14 O14      -2.8750    -4.6045     7.7423 O.3    1 <0>      -0.3000
   15 C15      -3.9990    -3.7618     7.4802 C.3    1 <0>       0.0200
   16 C16      -0.6994    -5.3057     7.0851 C.ar   1 <0>      -0.1600
   17 C17      -0.6495    -6.2638     8.2472 C.3    1 <0>       0.1800
   18 N18      -1.2978    -7.5224     7.8706 N.pl3  1 <0>      -0.3400
   19 C19      -0.7479    -8.7525     7.9467 C.2    1 <0>       0.1500
   20 C20      -1.6671    -9.6430     7.5074 C.2    1 <0>      -0.1900
   21 N21      -1.4867   -11.1096     7.4205 N.pl3  1 <0>       0.0700
   22 O22      -0.4328   -11.6149     7.7633 O.2    1 <0>      -0.1700
   23 O23      -2.3922   -11.8111     7.0063 O.2    1 <0>      -0.1600
   24 C24      -2.8181    -8.9329     7.1506 C.2    1 <0>       0.1100
   25 N25      -2.6000    -7.6623     7.3737 N.2    1 <0>      -0.2500
   26 C26       0.3676    -5.2204     6.2175 C.ar   1 <0>      -0.0200
   27 H27       0.9122     1.8585     0.0033 H      1 <0>       0.1000
   28 H28      -0.9582     1.8330     0.0166 H      1 <0>       0.1100
   29 H29      -0.9258    -0.5567     0.0079 H      1 <0>       0.1200
   30 H30       1.4134    -1.2911    -0.9498 H      1 <0>       0.1000
   31 H31       2.1349    -0.0241     0.0711 H      1 <0>       0.0900
   32 H32       0.6167    -1.7402     1.7223 H      1 <0>       0.4100
   33 H33       3.2870    -3.8628     2.4693 H      1 <0>       0.4200
   34 H34       2.3360    -4.8482     4.3643 H      1 <0>       0.1300
   35 H35      -0.8518    -2.8460     4.1158 H      1 <0>       0.1400
   36 H36      -2.7511    -3.0157     5.6673 H      1 <0>       0.1400
   37 H37      -4.4028    -3.9910     6.4940 H      1 <0>       0.0600
   38 H38      -4.7657    -3.9334     8.2356 H      1 <0>       0.1100
   39 H39      -3.6857    -2.7182     7.5110 H      1 <0>       0.0600
   40 H40       0.3894    -6.4562     8.5151 H      1 <0>       0.1200
   41 H41      -1.1699    -5.8280     9.1000 H      1 <0>       0.1100
   42 H42       0.2476    -8.9845     8.2954 H      1 <0>       0.2100
   43 H43      -3.7310    -9.3602     6.7628 H      1 <0>       0.2100
   44 H44       1.2409    -5.8369     6.3720 H      1 <0>       0.1400
@<TRIPOS>BOND
   1    1    2 2
   2    1   27 1
   3    1   28 1
   4    2    3 1
   5    2   29 1
   6    3    4 1
   7    3   30 1
   8    3   31 1
   9    4    5 am
  10    4   32 1
  11    5    6 2
  12    5    7 am
  13    7    8 1
  14    7   33 1
  15    8    9 2
  16    9   10 1
  17    9   34 1
  18   10   26 ar
  19   10   11 ar
  20   11   12 ar
  21   11   35 1
  22   12   13 ar
  23   12   36 1
  24   13   14 1
  25   13   16 ar
  26   14   15 1
  27   15   37 1
  28   15   38 1
  29   15   39 1
  30   16   17 1
  31   16   26 ar
  32   17   18 1
  33   17   40 1
  34   17   41 1
  35   18   25 1
  36   18   19 1
  37   19   20 2
  38   19   42 1
  39   20   21 1
  40   20   24 1
  41   21   22 2
  42   21   23 2
  43   24   25 2
  44   24   43 1
  45   26   44 1
