@<TRIPOS>MOLECULE
ZINC000005417772
46    48    1     0     0
SMALL
USER_CHARGES
@<TRIPOS>ATOM
1      C1     -2.2832    1.5145    0.1000 C.3      1 ZINC000005417772   -0.1600
2      C2     -1.4826    0.2149   -0.0047 C.3      1 ZINC000005417772    0.1300
3      C3     -0.3799    0.2084    1.0559 C.3      1 ZINC000005417772   -0.1600
4      N4     -2.3746   -0.9270    0.2113 N.pl3    1 ZINC000005417772   -0.4600
5      C5     -3.1231   -1.1911    1.3250 C.2      1 ZINC000005417772    0.1700
6      N6     -3.7704   -2.2999    1.1033 N.2      1 ZINC000005417772   -0.2900
7      N7     -3.4846   -2.7515   -0.0655 N.2      1 ZINC000005417772   -0.3000
8      C8     -2.6359   -1.9453   -0.6599 C.2      1 ZINC000005417772    0.1400
9      S9     -1.9548   -2.1452   -2.2726 S.3      1 ZINC000005417772    0.0800
10     C10    -2.7564   -3.6922   -2.7628 C.3      1 ZINC000005417772   -0.1500
11     C11    -2.3102   -4.0710   -4.1515 C.2      1 ZINC000005417772    0.5400
12     O12    -1.5273   -3.3646   -4.7508 O.2      1 ZINC000005417772   -0.5000
13     N13    -2.7812   -5.1948   -4.7275 N.am     1 ZINC000005417772   -0.6600
14     C14    -2.4992   -5.4632   -6.0733 C.ar     1 ZINC000005417772    0.1100
15     C15    -3.3862   -6.2152   -6.8322 C.ar     1 ZINC000005417772   -0.1100
16     C16    -3.1078   -6.4795   -8.1585 C.ar     1 ZINC000005417772   -0.1700
17     C17    -1.9417   -5.9942   -8.7329 C.ar     1 ZINC000005417772    0.1100
18     O18    -1.6681   -6.2547  -10.0389 O.3      1 ZINC000005417772   -0.2600
19     C19    -2.6429   -6.8267  -10.7931 C.ar     1 ZINC000005417772    0.0800
20     C20    -3.6958   -6.0575  -11.2678 C.ar     1 ZINC000005417772   -0.1300
21     C21    -4.6852   -6.6414  -12.0347 C.ar     1 ZINC000005417772   -0.1100
22     C22    -4.6274   -7.9912  -12.3291 C.ar     1 ZINC000005417772   -0.1200
23     C23    -3.5797   -8.7601  -11.8569 C.ar     1 ZINC000005417772   -0.1100
24     C24    -2.5843   -8.1799  -11.0947 C.ar     1 ZINC000005417772   -0.1200
25     C25    -1.0550   -5.2427   -7.9751 C.ar     1 ZINC000005417772   -0.1200
26     C26    -1.3354   -4.9726   -6.6504 C.ar     1 ZINC000005417772   -0.0900
27     H27    -1.6195    2.3641   -0.0607 H        1 ZINC000005417772    0.0900
28     H28    -3.0688    1.5191   -0.6556 H        1 ZINC000005417772    0.0700
29     H29    -2.7317    1.5861    1.0909 H        1 ZINC000005417772    0.0700
30     H30    -1.0341    0.1433   -0.9955 H        1 ZINC000005417772    0.1100
31     H31    -0.8284    0.2800    2.0468 H        1 ZINC000005417772    0.0700
32     H32     0.1905   -0.7175    0.9814 H        1 ZINC000005417772    0.0700
33     H33     0.2838    1.0580    0.8953 H        1 ZINC000005417772    0.0900
34     H34    -3.1688   -0.5917    2.2223 H        1 ZINC000005417772    0.2200
35     H35    -2.4800   -4.4819   -2.0643 H        1 ZINC000005417772    0.1300
36     H36    -3.8383   -3.5600   -2.7522 H        1 ZINC000005417772    0.1300
37     H37    -3.3154   -5.8177   -4.2103 H        1 ZINC000005417772    0.4200
38     H38    -4.2936   -6.5935   -6.3850 H        1 ZINC000005417772    0.1300
39     H39    -3.7976   -7.0643   -8.7488 H        1 ZINC000005417772    0.1300
40     H40    -3.7417   -5.0034  -11.0376 H        1 ZINC000005417772    0.1300
41     H41    -5.5049   -6.0432  -12.4045 H        1 ZINC000005417772    0.1300
42     H42    -5.4022   -8.4459  -12.9286 H        1 ZINC000005417772    0.1300
43     H43    -3.5372   -9.8143  -12.0876 H        1 ZINC000005417772    0.1300
44     H44    -1.7660   -8.7808  -10.7264 H        1 ZINC000005417772    0.1300
45     H45    -0.1474   -4.8656   -8.4226 H        1 ZINC000005417772    0.1400
46     H46    -0.6454   -4.3874   -6.0607 H        1 ZINC000005417772    0.1600
@<TRIPOS>BOND
1     1     2     1
2     1     27    1
3     1     28    1
4     1     29    1
5     2     3     1
6     2     4     1
7     2     30    1
8     3     31    1
9     3     32    1
10    3     33    1
11    4     8     1
12    4     5     1
13    5     6     2
14    5     34    1
15    6     7     1
16    7     8     2
17    8     9     1
18    9     10    1
19    10    11    1
20    10    35    1
21    10    36    1
22    11    12    2
23    11    13    am
24    13    14    1
25    13    37    1
26    14    26    ar
27    14    15    ar
28    15    16    ar
29    15    38    1
30    16    17    ar
31    16    39    1
32    17    18    1
33    17    25    ar
34    18    19    1
35    19    24    ar
36    19    20    ar
37    20    21    ar
38    20    40    1
39    21    22    ar
40    21    41    1
41    22    23    ar
42    22    42    1
43    23    24    ar
44    23    43    1
45    24    44    1
46    25    26    ar
47    25    45    1
48    26    46    1
@<TRIPOS>SUBSTRUCTURE
1   ZINC000005417772 1     RESIDUE    1   A     ZIN   1
