@<TRIPOS>MOLECULE
ZINC000000006486
38    40    1     0     0
SMALL
USER_CHARGES
@<TRIPOS>ATOM
1      O1      0.1425    0.0061   -0.0511 O.2      1 ZINC000000006486   -0.9400
2      S2     -0.0172    1.4168    0.0098 S.o2     1 ZINC000000006486    2.6900
3      O3      1.0775    2.3214    0.0605 O.2      1 ZINC000000006486   -0.9300
4      C4     -0.9730    1.8706   -1.3991 C.ar     1 ZINC000000006486   -0.6800
5      C5     -0.3624    2.0031   -2.6541 C.ar     1 ZINC000000006486    0.0600
6      C6      1.0142    1.7842   -2.8457 C.ar     1 ZINC000000006486   -0.2000
7      C7      1.5314    1.9328   -4.0966 C.ar     1 ZINC000000006486    0.1200
8      N8      0.7756    2.2762   -5.1307 N.ar     1 ZINC000000006486   -0.4800
9      C9     -0.5140    2.4961   -5.0265 C.ar     1 ZINC000000006486    0.1700
10     C10    -1.1467    2.3695   -3.7791 C.ar     1 ZINC000000006486   -0.1400
11     C11    -2.5224    2.5931   -3.6150 C.ar     1 ZINC000000006486   -0.0100
12     C12    -3.0822    2.4553   -2.3810 C.ar     1 ZINC000000006486   -0.1600
13     C13    -2.3123    2.0901   -1.2785 C.ar     1 ZINC000000006486    0.0200
14     N14    -0.9412    1.7253    1.3490 N.am     1 ZINC000000006486   -1.0100
15     C15    -0.9483    3.0339    1.9467 C.3      1 ZINC000000006486    0.0900
16     C16     0.0882    3.2764    3.0683 C.3      1 ZINC000000006486   -0.1700
17     C17     0.1692    2.0398    3.9943 C.3      1 ZINC000000006486   -0.0200
18     N18    -1.1508    1.4883    4.1904 N.4      1 ZINC000000006486   -0.4900
19     H19    -1.2664    1.1819    5.1448 H        1 ZINC000000006486    0.4400
20     H20    -1.8561    2.1693    3.9521 H        1 ZINC000000006486    0.4300
21     C21    -1.2082    0.3495    3.2790 C.3      1 ZINC000000006486   -0.0400
22     C22    -1.7904    0.6452    1.9560 C.3      1 ZINC000000006486    0.0900
23     H23     1.6480    1.5041   -2.0173 H        1 ZINC000000006486    0.1400
24     H24     2.5873    1.7667   -4.2508 H        1 ZINC000000006486    0.1700
25     H25    -1.0876    2.7741   -5.8983 H        1 ZINC000000006486    0.1800
26     H26    -3.1327    2.8728   -4.4610 H        1 ZINC000000006486    0.1500
27     H27    -4.1409    2.6279   -2.2557 H        1 ZINC000000006486    0.1400
28     H28    -2.7828    1.9882   -0.3118 H        1 ZINC000000006486    0.1300
29     H29    -0.7746    3.7676    1.1595 H        1 ZINC000000006486    0.1100
30     H30    -1.9416    3.2140    2.3578 H        1 ZINC000000006486    0.0900
31     H31     1.0663    3.4592    2.6231 H        1 ZINC000000006486    0.1200
32     H32    -0.2090    4.1469    3.6530 H        1 ZINC000000006486    0.1100
33     H33     0.8123    1.2872    3.5383 H        1 ZINC000000006486    0.1300
34     H34     0.5853    2.3351    4.9575 H        1 ZINC000000006486    0.1400
35     H35    -0.1957   -0.0278    3.1353 H        1 ZINC000000006486    0.1400
36     H36    -1.8010   -0.4364    3.7470 H        1 ZINC000000006486    0.1500
37     H37    -2.8176    0.9918    2.0696 H        1 ZINC000000006486    0.1100
38     H38    -1.7637   -0.2462    1.3293 H        1 ZINC000000006486    0.1500
@<TRIPOS>BOND
1     1     2     2
2     2     3     2
3     2     4     1
4     2     14    am
5     4     13    ar
6     4     5     ar
7     5     10    ar
8     5     6     ar
9     6     7     ar
10    6     23    1
11    7     8     ar
12    7     24    1
13    8     9     ar
14    9     10    ar
15    9     25    1
16    10    11    ar
17    11    12    ar
18    11    26    1
19    12    13    ar
20    12    27    1
21    13    28    1
22    14    22    1
23    14    15    1
24    15    16    1
25    15    29    1
26    15    30    1
27    16    17    1
28    16    31    1
29    16    32    1
30    17    18    1
31    17    33    1
32    17    34    1
33    18    19    1
34    18    20    1
35    18    21    1
36    21    22    1
37    21    35    1
38    21    36    1
39    22    37    1
40    22    38    1
@<TRIPOS>SUBSTRUCTURE
1   ZINC000000006486 1     RESIDUE    1   A     ZIN   1
