@<TRIPOS>MOLECULE
ZINC000020113328
33    35    1     0     0
SMALL
USER_CHARGES
@<TRIPOS>ATOM
1      C1     -0.0447    1.4048    0.7800 C.3      1 ZINC000020113328    0.0700
2      N2     -0.0177   -0.0452    0.5730 N.am     1 ZINC000020113328   -0.5100
3      C3     -1.1987   -0.7279    0.3872 C.2      1 ZINC000020113328    0.2700
4      C4     -1.1628   -2.1015    0.1914 C.2      1 ZINC000020113328   -0.0700
5      N5     -2.4442   -2.5258    0.0360 N.2      1 ZINC000020113328   -0.4400
6      C6     -3.2479   -1.4965    0.1257 C.2      1 ZINC000020113328    0.4900
7      N7     -4.6277   -1.5461    0.0176 N.pl3    1 ZINC000020113328   -0.6400
8      C8     -5.2762   -2.7795   -0.0911 C.ar     1 ZINC000020113328    0.1700
9      C9     -4.7236   -3.9107    0.4959 C.ar     1 ZINC000020113328   -0.1300
10     C10    -5.3672   -5.1277    0.3870 C.ar     1 ZINC000020113328   -0.0900
11     C11    -6.5606   -5.2210   -0.3055 C.ar     1 ZINC000020113328   -0.1400
12     C12    -7.1136   -4.0968   -0.8910 C.ar     1 ZINC000020113328   -0.1000
13     C13    -6.4779   -2.8757   -0.7815 C.ar     1 ZINC000020113328   -0.1500
14     N14    -2.5115   -0.3636    0.3435 N.pl3    1 ZINC000020113328   -0.5700
15     C15     0.1385   -2.7690    0.1909 C.2      1 ZINC000020113328    0.5900
16     O16     0.2206   -3.9722    0.0227 O.2      1 ZINC000020113328   -0.4800
17     N17     1.2470   -2.0214    0.3807 N.am     1 ZINC000020113328   -0.5500
18     C18     2.5621   -2.6670    0.3840 C.3      1 ZINC000020113328    0.0800
19     C19     1.1607   -0.6928    0.5611 C.2      1 ZINC000020113328    0.7100
20     O20     2.1827   -0.0554    0.7288 O.2      1 ZINC000020113328   -0.5300
21     H21     0.9737    1.7732    0.9034 H        1 ZINC000020113328    0.1100
22     H22    -0.5032    1.8866   -0.0835 H        1 ZINC000020113328    0.0800
23     H23    -0.6247    1.6334    1.6741 H        1 ZINC000020113328    0.0800
24     H24    -5.1440   -0.7250    0.0174 H        1 ZINC000020113328    0.4200
25     H25    -3.7914   -3.8387    1.0365 H        1 ZINC000020113328    0.1400
26     H26    -4.9379   -6.0077    0.8428 H        1 ZINC000020113328    0.1300
27     H27    -7.0618   -6.1740   -0.3895 H        1 ZINC000020113328    0.1200
28     H28    -8.0457   -4.1731   -1.4311 H        1 ZINC000020113328    0.1300
29     H29    -6.9104   -1.9981   -1.2387 H        1 ZINC000020113328    0.1200
30     H30    -2.8604    0.5354    0.4482 H        1 ZINC000020113328    0.4300
31     H31     2.4415   -3.7378    0.2200 H        1 ZINC000020113328    0.1100
32     H32     3.1762   -2.2446   -0.4113 H        1 ZINC000020113328    0.0800
33     H33     3.0470   -2.4990    1.3456 H        1 ZINC000020113328    0.0800
@<TRIPOS>BOND
1     1     2     1
2     1     21    1
3     1     22    1
4     1     23    1
5     2     19    am
6     2     3     1
7     3     14    1
8     3     4     2
9     4     5     1
10    4     15    1
11    5     6     2
12    6     7     1
13    6     14    1
14    7     8     1
15    7     24    1
16    8     13    ar
17    8     9     ar
18    9     10    ar
19    9     25    1
20    10    11    ar
21    10    26    1
22    11    12    ar
23    11    27    1
24    12    13    ar
25    12    28    1
26    13    29    1
27    14    30    1
28    15    16    2
29    15    17    am
30    17    18    1
31    17    19    am
32    18    31    1
33    18    32    1
34    18    33    1
35    19    20    2
@<TRIPOS>SUBSTRUCTURE
1   ZINC000020113328 1     RESIDUE    1   A     ZIN   1
