@<TRIPOS>MOLECULE
ZINC000049807552
  45   49    0    0    0
SMALL
USER_CHARGES
NO_NAME
@<TRIPOS>ATOM
    1 O1       -0.0164     1.3556     0.0095 O.3    1 <0>      -0.4900
    2 C2        0.0021    -0.0041     0.0020 C.ar   1 <0>       0.0900
    3 C3        0.0057    -0.6888    -1.1999 C.ar   1 <0>      -0.0800
    4 C4        0.0246    -2.0804    -1.2007 C.ar   1 <0>      -0.1000
    5 C5        0.0399    -2.7876     0.0102 C.ar   1 <0>       0.0900
    6 C6        0.0356    -2.0839     1.2083 C.ar   1 <0>      -0.0900
    7 C7        0.0230    -0.7053     1.2023 C.ar   1 <0>      -0.1000
    8 O8        0.0566    -4.1108    -0.2668 O.3    1 <0>      -0.1800
    9 C9        0.0534    -4.3404    -1.5987 C.ar   1 <0>       0.2700
   10 C10       0.0335    -3.1045    -2.2585 C.ar   1 <0>      -0.1200
   11 C11       0.0260    -3.0654    -3.6604 C.ar   1 <0>       0.0200
   12 C12       0.0056    -1.7758    -4.3894 C.ar   1 <0>      -0.0500
   13 C13      -1.0956    -0.9273    -4.2801 C.ar   1 <0>      -0.1000
   14 C14      -1.1088     0.2726    -4.9615 C.ar   1 <0>      -0.1200
   15 C15      -0.0325     0.6343    -5.7518 C.ar   1 <0>      -0.1100
   16 C16       1.0625    -0.2035    -5.8645 C.ar   1 <0>      -0.1200
   17 C17       1.0900    -1.4031    -5.1830 C.ar   1 <0>      -0.0900
   18 C18       0.0389    -4.2853    -4.3491 C.ar   1 <0>       0.0700
   19 O19       0.0330    -4.3114    -5.7083 O.3    1 <0>      -0.2900
   20 C20       0.0470    -5.5968    -6.3325 C.3    1 <0>       0.0900
   21 C21       0.0378    -5.4281    -7.8300 C.ar   1 <0>      -0.1000
   22 C22      -1.1635    -5.3609    -8.5106 C.ar   1 <0>      -0.0900
   23 C23      -1.1719    -5.2062    -9.8842 C.ar   1 <0>      -0.1200
   24 C24       0.0209    -5.1182   -10.5772 C.ar   1 <0>      -0.1100
   25 C25       1.2223    -5.1845    -9.8965 C.ar   1 <0>      -0.1200
   26 C26       1.2306    -5.3350    -8.5224 C.ar   1 <0>      -0.0900
   27 C27       0.0584    -5.4655    -3.6217 C.ar   1 <0>       0.0700
   28 N28       0.0649    -5.4634    -2.3046 N.ar   1 <0>      -0.4400
   29 H29       0.8616     1.7609     0.0033 H      1 <0>       0.3900
   30 H30      -0.0064    -0.1460    -2.1335 H      1 <0>       0.1400
   31 H31       0.0469    -2.6183     2.1467 H      1 <0>       0.1500
   32 H32       0.0197    -0.1657     2.1378 H      1 <0>       0.1500
   33 H33      -1.9365    -1.2088    -3.6637 H      1 <0>       0.1200
   34 H34      -1.9612     0.9304    -4.8779 H      1 <0>       0.1300
   35 H35      -0.0474     1.5744    -6.2833 H      1 <0>       0.1200
   36 H36       1.8997     0.0841    -6.4833 H      1 <0>       0.1300
   37 H37       1.9454    -2.0563    -5.2717 H      1 <0>       0.1200
   38 H38       0.9456    -6.1363    -6.0331 H      1 <0>       0.0800
   39 H39      -0.8342    -6.1598    -6.0249 H      1 <0>       0.0800
   40 H40      -2.0954    -5.4296    -7.9692 H      1 <0>       0.1200
   41 H41      -2.1105    -5.1543   -10.4161 H      1 <0>       0.1300
   42 H42       0.0144    -4.9980   -11.6505 H      1 <0>       0.1300
   43 H43       2.1542    -5.1162   -10.4380 H      1 <0>       0.1300
   44 H44       2.1692    -5.3868    -7.9906 H      1 <0>       0.1200
   45 H45       0.0680    -6.4088    -4.1475 H      1 <0>       0.1800
@<TRIPOS>BOND
   1    1    2 1
   2    1   29 1
   3    2    7 ar
   4    2    3 ar
   5    3    4 ar
   6    3   30 1
   7    4   10 1
   8    4    5 ar
   9    5    6 ar
  10    5    8 1
  11    6    7 ar
  12    6   31 1
  13    7   32 1
  14    8    9 1
  15    9   28 ar
  16    9   10 ar
  17   10   11 ar
  18   11   12 1
  19   11   18 ar
  20   12   17 ar
  21   12   13 ar
  22   13   14 ar
  23   13   33 1
  24   14   15 ar
  25   14   34 1
  26   15   16 ar
  27   15   35 1
  28   16   17 ar
  29   16   36 1
  30   17   37 1
  31   18   19 1
  32   18   27 ar
  33   19   20 1
  34   20   21 1
  35   20   38 1
  36   20   39 1
  37   21   26 ar
  38   21   22 ar
  39   22   23 ar
  40   22   40 1
  41   23   24 ar
  42   23   41 1
  43   24   25 ar
  44   24   42 1
  45   25   26 ar
  46   25   43 1
  47   26   44 1
  48   27   28 ar
  49   27   45 1
