@<TRIPOS>MOLECULE
ZINC000006225245
  34   35    0    0    0
SMALL
USER_CHARGES
NO_NAME
@<TRIPOS>ATOM
    1 O1        0.0021    -0.0041     0.0020 O.co2  1 <0>      -0.6700
    2 C2       -0.0145     1.2150     0.0087 C.2    1 <0>       0.5000
    3 O3        1.0330     1.8389     0.0021 O.co2  1 <0>      -0.6800
    4 C4       -1.3296     1.9507     0.0190 C.3    1 <0>      -0.0100
    5 O5       -2.4031     1.0074     0.0189 O.3    1 <0>      -0.2700
    6 C6       -3.6642     1.5091     0.0276 C.ar   1 <0>       0.1700
    7 C7       -3.8622     2.8854     0.0302 C.ar   1 <0>      -0.2300
    8 C8       -5.1389     3.3995     0.0391 C.ar   1 <0>      -0.0400
    9 C9       -6.2396     2.5336     0.0449 C.ar   1 <0>      -0.1600
   10 C10      -7.6043     3.0765     0.0539 C.2    1 <0>       0.0400
   11 C11      -8.6656     2.2381     0.0595 C.2    1 <0>      -0.2800
   12 C12      -9.9829     2.7621     0.0682 C.2    1 <0>       0.4300
   13 O13     -10.1588     3.9670     0.0705 O.2    1 <0>      -0.4700
   14 C14     -11.1433     1.8455     0.0744 C.ar   1 <0>      -0.1500
   15 C15     -10.9447     0.4633     0.0776 C.ar   1 <0>      -0.0600
   16 C16     -12.0306    -0.3864     0.0838 C.ar   1 <0>      -0.1200
   17 C17     -13.3165     0.1286     0.0865 C.ar   1 <0>      -0.0100
   18 Cl18    -14.6787    -0.9475     0.0938 Cl     1 <0>      -0.0700
   19 C19     -13.5199     1.4989     0.0838 C.ar   1 <0>      -0.1200
   20 C20     -12.4419     2.3586     0.0829 C.ar   1 <0>      -0.0500
   21 C21      -6.0344     1.1482     0.0418 C.ar   1 <0>      -0.0500
   22 C22      -4.7535     0.6449     0.0281 C.ar   1 <0>      -0.1700
   23 H23      -1.3917     2.5717     0.9126 H      1 <0>       0.0600
   24 H24      -1.4001     2.5813    -0.8673 H      1 <0>       0.0600
   25 H25      -3.0127     3.5523     0.0257 H      1 <0>       0.1300
   26 H26      -5.2916     4.4686     0.0418 H      1 <0>       0.1300
   27 H27      -7.7604     4.1452     0.0559 H      1 <0>       0.1300
   28 H28      -8.5096     1.1694     0.0575 H      1 <0>       0.1300
   29 H29      -9.9425     0.0606     0.0748 H      1 <0>       0.1400
   30 H30     -11.8782    -1.4556     0.0863 H      1 <0>       0.1400
   31 H31     -14.5248     1.8946     0.0858 H      1 <0>       0.1400
   32 H32     -12.6017     3.4268     0.0811 H      1 <0>       0.1400
   33 H33      -6.8798     0.4761     0.0467 H      1 <0>       0.1300
   34 H34      -4.5941    -0.4233     0.0257 H      1 <0>       0.1400
@<TRIPOS>BOND
   1    1    2 ar
   2    2    3 ar
   3    2    4 1
   4    4    5 1
   5    4   23 1
   6    4   24 1
   7    5    6 1
   8    6   22 ar
   9    6    7 ar
  10    7    8 ar
  11    7   25 1
  12    8    9 ar
  13    8   26 1
  14    9   10 1
  15    9   21 ar
  16   10   11 2
  17   10   27 1
  18   11   12 1
  19   11   28 1
  20   12   13 2
  21   12   14 1
  22   14   20 ar
  23   14   15 ar
  24   15   16 ar
  25   15   29 1
  26   16   17 ar
  27   16   30 1
  28   17   18 1
  29   17   19 ar
  30   19   20 ar
  31   19   31 1
  32   20   32 1
  33   21   22 ar
  34   21   33 1
  35   22   34 1
