@<TRIPOS>MOLECULE
ZINC000006744107
  38   40    0    0    0
SMALL
USER_CHARGES
NO_NAME
@<TRIPOS>ATOM
    1 C1       -0.1087     0.8467     0.4039 C.3    1 <0>      -0.1600
    2 C2        0.3670    -0.6071     0.3739 C.3    1 <0>       0.1900
    3 C3        1.4267    -0.8194     1.4569 C.3    1 <0>      -0.1600
    4 C4       -0.8198    -1.5375     0.6322 C.3    1 <0>      -0.1400
    5 N5        0.9443    -0.9051    -0.9392 N.pl3  1 <0>      -0.3700
    6 N6        0.4786    -1.8840    -1.8234 N.2    1 <0>      -0.2300
    7 C7        1.2159    -1.8921    -2.9086 C.2    1 <0>       0.1600
    8 C8        1.0434    -2.7834    -4.0807 C.ar   1 <0>       0.0000
    9 C9        2.1509    -3.4052    -4.6552 C.ar   1 <0>      -0.1200
   10 C10       1.9875    -4.2347    -5.7465 C.ar   1 <0>      -0.1000
   11 C11       0.7278    -4.4512    -6.2725 C.ar   1 <0>      -0.1300
   12 C12      -0.3806    -3.8355    -5.7067 C.ar   1 <0>       0.1100
   13 O13      -1.6172    -4.0511    -6.2275 O.3    1 <0>      -0.5000
   14 C14      -0.2270    -3.0067    -4.6079 C.ar   1 <0>      -0.1100
   15 C15       2.2391    -0.8591    -2.7490 C.ar   1 <0>      -0.3200
   16 C16       3.3013    -0.3834    -3.5350 C.ar   1 <0>       0.5200
   17 N17       3.5603    -0.9263    -4.7788 N.pl3  1 <0>      -0.8300
   18 N18       4.0512     0.6027    -3.0524 N.ar   1 <0>      -0.6100
   19 C19       3.8079     1.1259    -1.8640 C.ar   1 <0>       0.3800
   20 N20       2.8256     0.7127    -1.0935 N.ar   1 <0>      -0.5700
   21 C21       2.0151    -0.2675    -1.4916 C.ar   1 <0>       0.3800
   22 H22       0.7368     1.5095     0.2198 H      1 <0>       0.0800
   23 H23      -0.8636     0.9979    -0.3677 H      1 <0>       0.0600
   24 H24      -0.5382     1.0684     1.3808 H      1 <0>       0.0800
   25 H25       0.9971    -0.5978     2.4339 H      1 <0>       0.0800
   26 H26       1.7656    -1.8552     1.4356 H      1 <0>       0.0600
   27 H27       2.2722    -0.1566     1.2729 H      1 <0>       0.0800
   28 H28      -1.5747    -1.3863    -0.1394 H      1 <0>       0.0700
   29 H29      -0.4809    -2.5733     0.6109 H      1 <0>       0.0700
   30 H30      -1.2493    -1.3159     1.6092 H      1 <0>       0.0800
   31 H31       3.1366    -3.2378    -4.2468 H      1 <0>       0.1300
   32 H32       2.8465    -4.7155    -6.1909 H      1 <0>       0.1400
   33 H33       0.6053    -5.1011    -7.1264 H      1 <0>       0.1400
   34 H34      -2.0825    -4.8037    -5.8375 H      1 <0>       0.4000
   35 H35      -1.0883    -2.5274    -4.1665 H      1 <0>       0.1400
   36 H36       2.8895    -1.4712    -5.2193 H      1 <0>       0.4100
   37 H37       4.4128    -0.7625    -5.2115 H      1 <0>       0.4100
   38 H38       4.4420     1.9255    -1.5106 H      1 <0>       0.2000
@<TRIPOS>BOND
   1    1    2 1
   2    1   22 1
   3    1   23 1
   4    1   24 1
   5    2    3 1
   6    2    4 1
   7    2    5 1
   8    3   25 1
   9    3   26 1
  10    3   27 1
  11    4   28 1
  12    4   29 1
  13    4   30 1
  14    5   21 1
  15    5    6 1
  16    6    7 2
  17    7    8 1
  18    7   15 1
  19    8   14 ar
  20    8    9 ar
  21    9   10 ar
  22    9   31 1
  23   10   11 ar
  24   10   32 1
  25   11   12 ar
  26   11   33 1
  27   12   13 1
  28   12   14 ar
  29   13   34 1
  30   14   35 1
  31   15   21 ar
  32   15   16 ar
  33   16   17 1
  34   16   18 ar
  35   17   36 1
  36   17   37 1
  37   18   19 ar
  38   19   20 ar
  39   19   38 1
  40   20   21 ar
