@<TRIPOS>MOLECULE
ZINC000005763051
  33   34    0    0    0
SMALL
USER_CHARGES
NO_NAME
@<TRIPOS>ATOM
    1 C1       -0.0176     1.4478     0.0100 C.3    1 <0>       0.0600
    2 O2        0.0021    -0.0041     0.0020 O.3    1 <0>      -0.3700
    3 C3        0.6002    -0.6015    -1.0459 C.2    1 <0>       0.6500
    4 O4        1.0922     0.0719    -1.9296 O.2    1 <0>      -0.5700
    5 N5        0.6531    -1.9465    -1.1147 N.am   1 <0>      -0.7100
    6 C6        1.3039    -2.5965    -2.2549 C.3    1 <0>       0.1400
    7 C7        1.2259    -4.1155    -2.0887 C.3    1 <0>      -0.0700
    8 C8        1.8954    -4.7842    -3.2616 C.2    1 <0>       0.1200
    9 C9        3.2092    -5.0510    -3.3911 C.2    1 <0>      -0.2600
   10 C10       3.3356    -5.7078    -4.7148 C.2    1 <0>       0.0000
   11 N11       2.1391    -5.7588    -5.2077 N.2    1 <0>      -0.1800
   12 N12       1.2902    -5.2380    -4.3863 N.pl3  1 <0>      -0.3900
   13 C13       4.6659    -6.1414    -5.1857 C.2    1 <0>       0.4900
   14 O14       4.8472    -6.5239    -6.3248 O.2    1 <0>      -0.3800
   15 C15       5.7737    -6.0854    -4.1934 C.2    1 <0>       0.1200
   16 O16       6.9578    -6.6597    -4.5105 O.3    1 <0>      -0.2900
   17 C17       7.9973    -6.5857    -3.5328 C.3    1 <0>       0.0200
   18 C18       5.6481    -5.4878    -2.9946 C.2    1 <0>      -0.2800
   19 C19       4.4012    -4.8344    -2.5547 C.2    1 <0>       0.4800
   20 O20       4.3599    -4.1488    -1.5501 O.2    1 <0>      -0.4400
   21 H21       1.0050     1.8251     0.0023 H      1 <0>       0.0700
   22 H22      -0.5448     1.8089    -0.8731 H      1 <0>       0.0600
   23 H23      -0.5278     1.7993     0.9068 H      1 <0>       0.1100
   24 H24       0.2603    -2.4840    -0.4093 H      1 <0>       0.4100
   25 H25       0.7989    -2.3054    -3.1760 H      1 <0>       0.0700
   26 H26       2.3487    -2.2892    -2.3006 H      1 <0>       0.0800
   27 H27       1.7309    -4.4066    -1.1677 H      1 <0>       0.1200
   28 H28       0.1811    -4.4228    -2.0430 H      1 <0>       0.1000
   29 H29       0.3374    -5.1728    -4.5564 H      1 <0>       0.4500
   30 H30       8.2254    -5.5406    -3.3234 H      1 <0>       0.0700
   31 H31       7.6697    -7.0767    -2.6164 H      1 <0>       0.0700
   32 H32       8.8896    -7.0833    -3.9127 H      1 <0>       0.1100
   33 H33       6.4961    -5.4870    -2.3258 H      1 <0>       0.1600
@<TRIPOS>BOND
   1    1    2 1
   2    1   21 1
   3    1   22 1
   4    1   23 1
   5    2    3 1
   6    3    4 2
   7    3    5 am
   8    5    6 1
   9    5   24 1
  10    6    7 1
  11    6   25 1
  12    6   26 1
  13    7    8 1
  14    7   27 1
  15    7   28 1
  16    8   12 1
  17    8    9 2
  18    9   19 1
  19    9   10 1
  20   10   11 2
  21   10   13 1
  22   11   12 1
  23   12   29 1
  24   13   14 2
  25   13   15 1
  26   15   16 1
  27   15   18 2
  28   16   17 1
  29   17   30 1
  30   17   31 1
  31   17   32 1
  32   18   19 1
  33   18   33 1
  34   19   20 2
