@<TRIPOS>MOLECULE
ZINC000002562250
19    20    1     0     0
SMALL
USER_CHARGES
@<TRIPOS>ATOM
1      N1     -0.0166    1.3758    0.0096 N.pl3    1 ZINC000002562250   -0.8000
2      C2      0.0021   -0.0041    0.0020 C.2      1 ZINC000002562250    0.3900
3      N3     -1.0461   -0.7542    0.0024 N.2      1 ZINC000002562250   -0.5500
4      C4     -0.8652   -2.0902   -0.0061 C.ar     1 ZINC000002562250    0.1700
5      C5     -1.8370   -3.1126   -0.0069 C.ar     1 ZINC000002562250   -0.0900
6      C6     -1.4583   -4.4317   -0.0155 C.ar     1 ZINC000002562250   -0.0500
7      C7     -0.1163   -4.7807   -0.0230 C.ar     1 ZINC000002562250   -0.1900
8      C8      0.2847   -6.2334   -0.0323 C.3      1 ZINC000002562250    0.5100
9      F9     -0.8627   -7.0338   -0.0317 F        1 ZINC000002562250   -0.1700
10     F10     1.0396   -6.5014   -1.1792 F        1 ZINC000002562250   -0.1800
11     F11     1.0493   -6.5134    1.1053 F        1 ZINC000002562250   -0.1800
12     C12     0.8503   -3.7991   -0.0224 C.ar     1 ZINC000002562250    0.0000
13     C13     0.4843   -2.4559   -0.0142 C.ar     1 ZINC000002562250   -0.2100
14     S14     1.4588   -0.9880   -0.0172 S.3      1 ZINC000002562250    0.0700
15     H15     0.8167    1.8722    0.0043 H        1 ZINC000002562250    0.4200
16     H16    -0.8632    1.8493    0.0162 H        1 ZINC000002562250    0.4200
17     H17    -2.8860   -2.8556   -0.0004 H        1 ZINC000002562250    0.1500
18     H18    -2.2124   -5.2049   -0.0160 H        1 ZINC000002562250    0.1500
19     H19     1.8951   -4.0724   -0.0283 H        1 ZINC000002562250    0.1400
@<TRIPOS>BOND
1     1     2     1
2     1     15    1
3     1     16    1
4     2     14    1
5     2     3     2
6     3     4     1
7     4     13    ar
8     4     5     ar
9     5     6     ar
10    5     17    1
11    6     7     ar
12    6     18    1
13    7     8     1
14    7     12    ar
15    8     9     1
16    8     10    1
17    8     11    1
18    12    13    ar
19    12    19    1
20    13    14    1
@<TRIPOS>SUBSTRUCTURE
1   ZINC000002562250 1     RESIDUE    1   A     ZIN   1
