@<TRIPOS>MOLECULE
ZINC000299863350
75    81    1     0     0
SMALL
USER_CHARGES
@<TRIPOS>ATOM
1      C1     -3.4137    0.2942   -2.2713 C.3      1 ZINC000299863350   -0.1600
2      C2     -2.5154   -0.8268   -1.7446 C.3      1 ZINC000299863350    0.0600
3      O3     -1.6230   -1.2688   -2.8012 O.3      1 ZINC000299863350   -0.3300
4      C4     -0.7598   -2.2593   -2.4989 C.2      1 ZINC000299863350    0.5700
5      O5     -0.7534   -2.7402   -1.3827 O.2      1 ZINC000299863350   -0.4700
6      C6      0.1749   -2.7584   -3.5207 C.2      1 ZINC000299863350    0.0200
7      N7      0.2880   -2.3418   -4.7482 N.2      1 ZINC000299863350   -0.1500
8      N8      1.2272   -2.9358   -5.5609 N.pl3    1 ZINC000299863350   -0.3300
9      C9      1.4081   -2.5423   -6.8912 C.ar     1 ZINC000299863350    0.1600
10     C10     1.1895   -3.4486   -7.9211 C.ar     1 ZINC000299863350   -0.0900
11     C11     1.3690   -3.0570   -9.2331 C.ar     1 ZINC000299863350   -0.1000
12     C12     1.7664   -1.7643   -9.5223 C.ar     1 ZINC000299863350   -0.0900
13     C13     1.9854   -0.8597   -8.4994 C.ar     1 ZINC000299863350   -0.1000
14     C14     1.8013   -1.2429   -7.1855 C.ar     1 ZINC000299863350   -0.0800
15     C15     1.9741   -3.9322   -4.9941 C.2      1 ZINC000299863350    0.2200
16     C16     2.9794   -4.6855   -5.5906 C.2      1 ZINC000299863350   -0.3700
17     S17     3.5932   -6.2688   -5.0765 S.3      1 ZINC000299863350    0.1600
18     C18     4.7812   -6.3852   -6.3884 C.2      1 ZINC000299863350    0.4200
19     N19     5.6283   -7.3738   -6.6151 N.2      1 ZINC000299863350   -0.4900
20     C20     5.6474   -8.4486   -5.7957 C.ar     1 ZINC000299863350    0.3800
21     N21     4.8088   -8.5094   -4.7663 N.ar     1 ZINC000299863350   -0.5300
22     C22     4.7922   -9.5442   -3.9363 C.ar     1 ZINC000299863350    0.2400
23     C23     3.8330   -9.5547   -2.8059 C.ar     1 ZINC000299863350   -0.0600
24     C24     3.8061  -10.6316   -1.9209 C.ar     1 ZINC000299863350   -0.0900
25     C25     2.9114  -10.6356   -0.8703 C.ar     1 ZINC000299863350   -0.1200
26     C26     2.0422   -9.5739   -0.6944 C.ar     1 ZINC000299863350   -0.1000
27     C27     2.0643   -8.5026   -1.5694 C.ar     1 ZINC000299863350   -0.1300
28     C28     2.9582   -8.4851   -2.6205 C.ar     1 ZINC000299863350   -0.0700
29     C29     5.6585  -10.6209   -4.1071 C.ar     1 ZINC000299863350   -0.1700
30     C30     6.5606  -10.6126   -5.1697 C.ar     1 ZINC000299863350    0.0700
31     C31     7.4966  -11.7419   -5.3809 C.ar     1 ZINC000299863350   -0.0700
32     C32     8.2687  -12.2184   -4.3221 C.ar     1 ZINC000299863350   -0.0900
33     C33     9.1386  -13.2702   -4.5249 C.ar     1 ZINC000299863350   -0.1200
34     C34     9.2455  -13.8518   -5.7755 C.ar     1 ZINC000299863350   -0.1000
35     C35     8.4824  -13.3831   -6.8299 C.ar     1 ZINC000299863350   -0.1200
36     C36     7.6045  -12.3359   -6.6378 C.ar     1 ZINC000299863350   -0.0900
37     C37     6.5556   -9.5041   -6.0422 C.ar     1 ZINC000299863350   -0.0600
38     C38     7.4610   -9.4436   -7.1500 C.1      1 ZINC000299863350    0.2700
39     N39     8.1792   -9.3956   -8.0288 N.1      1 ZINC000299863350   -0.4000
40     N40     4.6358   -5.2355   -7.1166 N.am     1 ZINC000299863350   -0.4800
41     C41     5.4294   -4.9920   -8.2452 C.ar     1 ZINC000299863350    0.1200
42     C42     6.6511   -4.3460   -8.1104 C.ar     1 ZINC000299863350   -0.0900
43     C43     7.4315   -4.1078   -9.2248 C.ar     1 ZINC000299863350   -0.1100
44     C44     6.9970   -4.5115  -10.4740 C.ar     1 ZINC000299863350   -0.1000
45     C45     5.7806   -5.1546  -10.6115 C.ar     1 ZINC000299863350   -0.1100
46     C46     4.9985   -5.4012   -9.5001 C.ar     1 ZINC000299863350   -0.0900
47     C47     3.7213   -4.3641   -6.7276 C.2      1 ZINC000299863350    0.5600
48     O48     3.5398   -3.3186   -7.3321 O.2      1 ZINC000299863350   -0.4700
49     S49     1.3800   -4.0435   -3.3264 S.3      1 ZINC000299863350    0.1800
50     H50    -2.7965    1.1306   -2.5992 H        1 ZINC000299863350    0.0700
51     H51    -4.0010   -0.0755   -3.1119 H        1 ZINC000299863350    0.0700
52     H52    -4.0837    0.6260   -1.4781 H        1 ZINC000299863350    0.0900
53     H53    -1.9282   -0.4571   -0.9040 H        1 ZINC000299863350    0.0800
54     H54    -3.1327   -1.6632   -1.4167 H        1 ZINC000299863350    0.0800
55     H55     0.8798   -4.4585   -7.6959 H        1 ZINC000299863350    0.1200
56     H56     1.1992   -3.7611  -10.0343 H        1 ZINC000299863350    0.1300
57     H57     1.9065   -1.4607  -10.5493 H        1 ZINC000299863350    0.1300
58     H58     2.2961    0.1489   -8.7287 H        1 ZINC000299863350    0.1300
59     H59     1.9722   -0.5358   -6.3872 H        1 ZINC000299863350    0.1200
60     H60     4.4840  -11.4612   -2.0575 H        1 ZINC000299863350    0.1300
61     H61     2.8894  -11.4695   -0.1843 H        1 ZINC000299863350    0.1300
62     H62     1.3434   -9.5815    0.1291 H        1 ZINC000299863350    0.1300
63     H63     1.3831   -7.6766   -1.4273 H        1 ZINC000299863350    0.1300
64     H64     2.9748   -7.6481   -3.3028 H        1 ZINC000299863350    0.1300
65     H65     5.6320  -11.4553   -3.4219 H        1 ZINC000299863350    0.1500
66     H66     8.1864  -11.7650   -3.3453 H        1 ZINC000299863350    0.1300
67     H67     9.7374  -13.6400   -3.7056 H        1 ZINC000299863350    0.1300
68     H68     9.9277  -14.6748   -5.9295 H        1 ZINC000299863350    0.1300
69     H69     8.5703  -13.8408   -7.8042 H        1 ZINC000299863350    0.1300
70     H70     7.0092  -11.9708   -7.4617 H        1 ZINC000299863350    0.1200
71     H71     6.9907   -4.0298   -7.1351 H        1 ZINC000299863350    0.1200
72     H72     8.3818   -3.6054   -9.1205 H        1 ZINC000299863350    0.1300
73     H73     7.6087   -4.3238  -11.3439 H        1 ZINC000299863350    0.1300
74     H74     5.4436   -5.4681  -11.5886 H        1 ZINC000299863350    0.1300
75     H75     4.0488   -5.9039   -9.6082 H        1 ZINC000299863350    0.1200
@<TRIPOS>BOND
1     1     2     1
2     1     50    1
3     1     51    1
4     1     52    1
5     2     3     1
6     2     53    1
7     2     54    1
8     3     4     1
9     4     5     2
10    4     6     1
11    6     49    1
12    6     7     2
13    7     8     1
14    8     9     1
15    8     15    1
16    9     14    ar
17    9     10    ar
18    10    11    ar
19    10    55    1
20    11    12    ar
21    11    56    1
22    12    13    ar
23    12    57    1
24    13    14    ar
25    13    58    1
26    14    59    1
27    15    16    2
28    15    49    1
29    16    47    1
30    16    17    1
31    17    18    1
32    18    19    2
33    18    40    1
34    19    20    1
35    20    37    ar
36    20    21    ar
37    21    22    ar
38    22    23    1
39    22    29    ar
40    23    28    ar
41    23    24    ar
42    24    25    ar
43    24    60    1
44    25    26    ar
45    25    61    1
46    26    27    ar
47    26    62    1
48    27    28    ar
49    27    63    1
50    28    64    1
51    29    30    ar
52    29    65    1
53    30    31    1
54    30    37    ar
55    31    36    ar
56    31    32    ar
57    32    33    ar
58    32    66    1
59    33    34    ar
60    33    67    1
61    34    35    ar
62    34    68    1
63    35    36    ar
64    35    69    1
65    36    70    1
66    37    38    1
67    38    39    3
68    40    41    1
69    40    47    am
70    41    46    ar
71    41    42    ar
72    42    43    ar
73    42    71    1
74    43    44    ar
75    43    72    1
76    44    45    ar
77    44    73    1
78    45    46    ar
79    45    74    1
80    46    75    1
81    47    48    2
@<TRIPOS>SUBSTRUCTURE
1   ZINC000299863350 1     RESIDUE    1   A     ZIN   1
