@<TRIPOS>MOLECULE
ZINC000045337386
  35   37    0    0    0
SMALL
USER_CHARGES
NO_NAME
@<TRIPOS>ATOM
    1 C1       -0.0176     1.4478     0.0100 C.3    1 <0>       0.0600
    2 O2        0.0021    -0.0041     0.0020 O.3    1 <0>      -0.3700
    3 C3        0.6200    -0.6127     1.0318 C.2    1 <0>       0.6500
    4 O4        1.1289     0.0513     1.9131 O.2    1 <0>      -0.5700
    5 N5        0.6741    -1.9583     1.0852 N.am   1 <0>      -0.7100
    6 C6        1.3465    -2.6205     2.2057 C.3    1 <0>       0.1400
    7 C7        1.2652    -4.1376     2.0247 C.3    1 <0>      -0.0700
    8 C8        1.9569    -4.8188     3.1774 C.2    1 <0>       0.1200
    9 C9        1.4137    -5.1218     4.3861 C.2    1 <0>      -0.2600
   10 C10       2.5110    -5.7761     5.1390 C.2    1 <0>       0.0000
   11 N11       3.5335    -5.7922     4.3430 N.2    1 <0>      -0.2000
   12 N12       3.2378    -5.2533     3.2089 N.pl3  1 <0>      -0.3900
   13 C13       2.2814    -6.2487     6.5178 C.2    1 <0>       0.4800
   14 O14       3.1996    -6.6169     7.2241 O.2    1 <0>      -0.4100
   15 C15       0.8760    -6.2538     7.0049 C.ar   1 <0>      -0.1100
   16 C16       0.5882    -6.8967     8.2088 C.ar   1 <0>      -0.0700
   17 C17      -0.7073    -6.9197     8.6902 C.ar   1 <0>      -0.1000
   18 C18      -1.7265    -6.3073     7.9839 C.ar   1 <0>      -0.1000
   19 C19      -1.4602    -5.6656     6.7886 C.ar   1 <0>      -0.0700
   20 C20      -0.1599    -5.6325     6.2875 C.ar   1 <0>      -0.1100
   21 C21       0.0911    -4.9352     4.9965 C.2    1 <0>       0.4800
   22 O22      -0.7597    -4.2431     4.4716 O.2    1 <0>      -0.4300
   23 H23       1.0050     1.8251     0.0023 H      1 <0>       0.0600
   24 H24      -0.5448     1.8089    -0.8731 H      1 <0>       0.1100
   25 H25      -0.5278     1.7993     0.9068 H      1 <0>       0.0700
   26 H26       0.2679    -2.4883     0.3816 H      1 <0>       0.4100
   27 H27       2.3920    -2.3136     2.2348 H      1 <0>       0.0700
   28 H28       0.8592    -2.3393     3.1393 H      1 <0>       0.0800
   29 H29       0.2197    -4.4445     1.9957 H      1 <0>       0.1100
   30 H30       1.7525    -4.4187     1.0911 H      1 <0>       0.1000
   31 H31       3.8604    -5.1642     2.4704 H      1 <0>       0.4500
   32 H32       1.3788    -7.3776     8.7656 H      1 <0>       0.1500
   33 H33      -0.9249    -7.4189     9.6229 H      1 <0>       0.1400
   34 H34      -2.7357    -6.3307     8.3679 H      1 <0>       0.1400
   35 H35      -2.2608    -5.1893     6.2422 H      1 <0>       0.1400
@<TRIPOS>BOND
   1    1    2 1
   2    1   23 1
   3    1   24 1
   4    1   25 1
   5    2    3 1
   6    3    4 2
   7    3    5 am
   8    5    6 1
   9    5   26 1
  10    6    7 1
  11    6   27 1
  12    6   28 1
  13    7    8 1
  14    7   29 1
  15    7   30 1
  16    8   12 1
  17    8    9 2
  18    9   21 1
  19    9   10 1
  20   10   11 2
  21   10   13 1
  22   11   12 1
  23   12   31 1
  24   13   14 2
  25   13   15 1
  26   15   20 ar
  27   15   16 ar
  28   16   17 ar
  29   16   32 1
  30   17   18 ar
  31   17   33 1
  32   18   19 ar
  33   18   34 1
  34   19   20 ar
  35   19   35 1
  36   20   21 1
  37   21   22 2
