@<TRIPOS>MOLECULE
ZINC000039202807
45    47    1     0     0
SMALL
USER_CHARGES
@<TRIPOS>ATOM
1      C1      3.6524    4.9009    6.1890 C.3      1 ZINC000039202807    0.0200
2      O2      4.4582    4.4994    5.0792 O.3      1 ZINC000039202807   -0.3100
3      C3      3.8155    4.2521    3.9076 C.ar     1 ZINC000039202807    0.1900
4      C4      4.5362    3.8583    2.7895 C.ar     1 ZINC000039202807   -0.1700
5      C5      3.8805    3.6071    1.5998 C.ar     1 ZINC000039202807    0.0200
6      C6      2.5071    3.7478    1.5229 C.ar     1 ZINC000039202807   -0.7100
7      S7      1.6738    3.4266    0.0040 S.o2     1 ZINC000039202807    2.6800
8      O8      2.6376    3.5969   -1.0263 O.2      1 ZINC000039202807   -0.9300
9      O9      0.4535    4.1529    0.0545 O.2      1 ZINC000039202807   -0.9300
10     N10     1.2633    1.8223   -0.0002 N.am     1 ZINC000039202807   -0.8300
11     C11    -0.0161    1.3382    0.0094 C.2      1 ZINC000039202807    0.0300
12     C12     0.0021   -0.0041    0.0020 C.2      1 ZINC000039202807   -0.1000
13     C13    -1.1972   -0.9166    0.0086 C.3      1 ZINC000039202807   -0.0300
14     C14    -1.5136   -1.3327    1.4465 C.3      1 ZINC000039202807   -0.1800
15     C15    -2.7129   -2.2452    1.4531 C.2      1 ZINC000039202807    0.4900
16     O16    -3.2635   -2.5358    0.4048 O.co2    1 ZINC000039202807   -0.7000
17     O17    -3.1325   -2.6929    2.5066 O.co2    1 ZINC000039202807   -0.7100
18     C18     1.4085   -0.4139   -0.0136 C.ar     1 ZINC000039202807   -0.0400
19     C19     2.0575   -1.6501   -0.0264 C.ar     1 ZINC000039202807   -0.1000
20     C20     3.4375   -1.6960   -0.0399 C.ar     1 ZINC000039202807    0.1100
21     O21     4.0751   -2.8971   -0.0524 O.3      1 ZINC000039202807   -0.3100
22     C22     5.5038   -2.8730   -0.0660 C.3      1 ZINC000039202807    0.0300
23     C23     4.1788   -0.5175   -0.0411 C.ar     1 ZINC000039202807   -0.1800
24     C24     3.5491    0.7073   -0.0290 C.ar     1 ZINC000039202807   -0.0900
25     C25     2.1603    0.7749   -0.0144 C.ar     1 ZINC000039202807    0.0700
26     C26     1.7873    4.1456    2.6343 C.ar     1 ZINC000039202807    0.0300
27     C27     2.4376    4.3925    3.8279 C.ar     1 ZINC000039202807   -0.2300
28     H28     3.1280    5.8240    5.9421 H        1 ZINC000039202807    0.0600
29     H29     2.9264    4.1192    6.4125 H        1 ZINC000039202807    0.0600
30     H30     4.2883    5.0657    7.0589 H        1 ZINC000039202807    0.1100
31     H31     5.6089    3.7486    2.8489 H        1 ZINC000039202807    0.1400
32     H32     4.4411    3.3009    0.7289 H        1 ZINC000039202807    0.1500
33     H33    -0.9088    1.9460    0.0171 H        1 ZINC000039202807    0.1900
34     H34    -2.0543   -0.3932   -0.4152 H        1 ZINC000039202807    0.0800
35     H35    -0.9821   -1.8036   -0.5874 H        1 ZINC000039202807    0.0800
36     H36    -0.6565   -1.8561    1.8702 H        1 ZINC000039202807    0.0600
37     H37    -1.7287   -0.4457    2.0424 H        1 ZINC000039202807    0.0600
38     H38     1.4836   -2.5650   -0.0255 H        1 ZINC000039202807    0.1400
39     H39     5.8843   -3.8944   -0.0751 H        1 ZINC000039202807    0.1000
40     H40     5.8499   -2.3484   -0.9565 H        1 ZINC000039202807    0.0500
41     H41     5.8670   -2.3579    0.8234 H        1 ZINC000039202807    0.0500
42     H42     5.2577   -0.5642   -0.0520 H        1 ZINC000039202807    0.1400
43     H43     4.1340    1.6153   -0.0308 H        1 ZINC000039202807    0.1300
44     H44     0.7152    4.2590    2.5705 H        1 ZINC000039202807    0.1500
45     H45     1.8744    4.6989    4.6969 H        1 ZINC000039202807    0.1400
@<TRIPOS>BOND
1     1     2     1
2     1     28    1
3     1     29    1
4     1     30    1
5     2     3     1
6     3     27    ar
7     3     4     ar
8     4     5     ar
9     4     31    1
10    5     6     ar
11    5     32    1
12    6     7     1
13    6     26    ar
14    7     8     2
15    7     9     2
16    7     10    am
17    10    25    1
18    10    11    1
19    11    12    2
20    11    33    1
21    12    13    1
22    12    18    1
23    13    14    1
24    13    34    1
25    13    35    1
26    14    15    1
27    14    36    1
28    14    37    1
29    15    16    ar
30    15    17    ar
31    18    25    ar
32    18    19    ar
33    19    20    ar
34    19    38    1
35    20    21    1
36    20    23    ar
37    21    22    1
38    22    39    1
39    22    40    1
40    22    41    1
41    23    24    ar
42    23    42    1
43    24    25    ar
44    24    43    1
45    26    27    ar
46    26    44    1
47    27    45    1
@<TRIPOS>SUBSTRUCTURE
1   ZINC000039202807 1     RESIDUE    1   A     ZIN   1
