@<TRIPOS>MOLECULE
ZINC000014974642
  34   37    0    0    0
SMALL
USER_CHARGES
NO_NAME
@<TRIPOS>ATOM
    1 O1        0.0021    -0.0041     0.0020 O.2    1 <0>      -0.5100
    2 C2       -0.0144     1.2116     0.0087 C.2    1 <0>       0.7000
    3 N3       -1.2001     1.8337     0.0288 N.am   1 <0>      -0.6600
    4 C4       -1.3284     3.2229     0.0376 C.ar   1 <0>       0.1700
    5 C5       -2.5819     3.8192     0.0576 C.ar   1 <0>      -0.1500
    6 C6       -2.6877     5.1968     0.0655 C.ar   1 <0>      -0.0800
    7 C7       -1.5517     5.9847     0.0536 C.ar   1 <0>      -0.1400
    8 C8       -0.2988     5.3946     0.0331 C.ar   1 <0>      -0.0700
    9 C9       -0.1909     4.0235     0.0256 C.ar   1 <0>      -0.1400
   10 C10       1.1577     3.3417     0.0034 C.3    1 <0>       0.1400
   11 N11       1.1594     1.8688     0.0010 N.am   1 <0>      -0.5200
   12 C12       2.3582     1.1670    -0.0184 C.2    1 <0>       0.3200
   13 N13       2.4700    -0.1243    -0.0274 N.2    1 <0>      -0.4600
   14 C14       3.6992    -0.6224    -0.0465 C.2    1 <0>       0.1300
   15 C15       3.9633    -2.0805    -0.0589 C.ar   1 <0>       0.0200
   16 C16       5.2723    -2.5736    -0.0736 C.ar   1 <0>      -0.1600
   17 C17       5.4729    -3.9378    -0.0844 C.ar   1 <0>       0.1000
   18 N18       4.4510    -4.7730    -0.0809 N.ar   1 <0>      -0.4800
   19 C19       3.2012    -4.3494    -0.0672 C.ar   1 <0>       0.1000
   20 C20       2.9106    -3.0015    -0.0503 C.ar   1 <0>      -0.1400
   21 C21       4.6898     0.2885    -0.0543 C.2    1 <0>      -0.2500
   22 S22       3.9623     1.8934    -0.0424 S.3    1 <0>       0.1100
   23 H23      -2.0061     1.2941     0.0374 H      1 <0>       0.4300
   24 H24      -3.4721     3.2078     0.0667 H      1 <0>       0.1300
   25 H25      -3.6629     5.6605     0.0808 H      1 <0>       0.1300
   26 H26      -1.6413     7.0610     0.0598 H      1 <0>       0.1300
   27 H27       0.5897     6.0086     0.0237 H      1 <0>       0.1400
   28 H28       1.6920     3.6823    -0.8834 H      1 <0>       0.0900
   29 H29       1.7173     3.6748     0.8775 H      1 <0>       0.0900
   30 H30       6.1132    -1.8959    -0.0769 H      1 <0>       0.1400
   31 H31       6.4799    -4.3281    -0.0961 H      1 <0>       0.1600
   32 H32       2.3951    -5.0682    -0.0652 H      1 <0>       0.1600
   33 H33       1.8854    -2.6620    -0.0391 H      1 <0>       0.1500
   34 H34       5.7480     0.0731    -0.0689 H      1 <0>       0.1900
@<TRIPOS>BOND
   1    1    2 2
   2    2   11 am
   3    2    3 am
   4    3    4 1
   5    3   23 1
   6    4    9 ar
   7    4    5 ar
   8    5    6 ar
   9    5   24 1
  10    6    7 ar
  11    6   25 1
  12    7    8 ar
  13    7   26 1
  14    8    9 ar
  15    8   27 1
  16    9   10 1
  17   10   11 1
  18   10   28 1
  19   10   29 1
  20   11   12 1
  21   12   22 1
  22   12   13 2
  23   13   14 1
  24   14   15 1
  25   14   21 2
  26   15   20 ar
  27   15   16 ar
  28   16   17 ar
  29   16   30 1
  30   17   18 ar
  31   17   31 1
  32   18   19 ar
  33   19   20 ar
  34   19   32 1
  35   20   33 1
  36   21   22 1
  37   21   34 1
