@<TRIPOS>MOLECULE
ZINC000012428936
  23   24    0    0    0
SMALL
USER_CHARGES
NO_NAME
@<TRIPOS>ATOM
    1 O1        0.3219     0.1767    -1.5414 O.2    1 <0>      -0.5200
    2 C2        0.3166     1.3823    -1.3823 C.2    1 <0>       0.7000
    3 N3       -0.5271     2.2258    -1.9963 N.am   1 <0>      -0.6800
    4 C4       -0.2739     3.4914    -1.6059 C.2    1 <0>       0.5500
    5 O5       -0.8533     4.4982    -1.9691 O.2    1 <0>      -0.4500
    6 C6        0.8431     3.4102    -0.6522 C.2    1 <0>       0.0100
    7 C7        1.4418     4.4352     0.0049 C.2    1 <0>      -0.0200
    8 C8        0.8759     5.7881    -0.0735 C.ar   1 <0>      -0.0900
    9 C9       -0.5118     5.9723    -0.0402 C.ar   1 <0>      -0.0400
   10 C10      -1.0369     7.2427    -0.1141 C.ar   1 <0>      -0.1500
   11 C11      -0.1923     8.3415    -0.2215 C.ar   1 <0>       0.1300
   12 O12      -0.7154     9.5922    -0.2936 O.3    1 <0>      -0.5000
   13 C13       1.1861     8.1645    -0.2550 C.ar   1 <0>      -0.1600
   14 C14       1.7222     6.8989    -0.1760 C.ar   1 <0>      -0.0700
   15 N15       1.1517     2.0458    -0.5633 N.am   1 <0>      -0.6600
   16 H16      -1.2162     1.9643    -2.6269 H      1 <0>       0.4400
   17 H17       2.3346     4.2561     0.5856 H      1 <0>       0.1500
   18 H18      -1.1690     5.1192     0.0428 H      1 <0>       0.1300
   19 H19      -2.1071     7.3859    -0.0889 H      1 <0>       0.1300
   20 H20      -0.8372    10.0178     0.5662 H      1 <0>       0.3900
   21 H21       1.8378     9.0216    -0.3389 H      1 <0>       0.1300
   22 H22       2.7933     6.7625    -0.2017 H      1 <0>       0.1300
   23 H23       1.8473     1.6514    -0.0141 H      1 <0>       0.4400
@<TRIPOS>BOND
   1    1    2 2
   2    2   15 am
   3    2    3 am
   4    3    4 am
   5    3   16 1
   6    4    5 2
   7    4    6 1
   8    6    7 2
   9    6   15 1
  10    7    8 1
  11    7   17 1
  12    8   14 ar
  13    8    9 ar
  14    9   10 ar
  15    9   18 1
  16   10   11 ar
  17   10   19 1
  18   11   12 1
  19   11   13 ar
  20   12   20 1
  21   13   14 ar
  22   13   21 1
  23   14   22 1
  24   15   23 1
