@<TRIPOS>MOLECULE
ZINC000003873639
  44   44    0    0    0
SMALL
USER_CHARGES
NO_NAME
@<TRIPOS>ATOM
    1 C1        0.5666     1.9153    -0.9484 C.3    1 <0>      -0.1000
    2 C2        0.2623     0.5420    -0.4076 C.2    1 <0>      -0.0900
    3 C3        0.2840     0.3233     0.9082 C.2    1 <0>      -0.1300
    4 C4        0.4917     1.4733     1.8598 C.3    1 <0>      -0.1000
    5 H5        0.6973     2.3813     1.2930 H      1 <0>       0.1000
    6 C6        1.6757     1.1669     2.7792 C.3    1 <0>      -0.1400
    7 C7       -0.7509     1.6695     2.6895 C.2    1 <0>       0.4200
    8 O8       -1.4611     0.7216     2.9518 O.2    1 <0>      -0.4600
    9 C9       -1.1019     3.0073     3.1802 C.ar   1 <0>      -0.2300
   10 C10      -0.2862     4.1044     2.8737 C.ar   1 <0>      -0.0200
   11 C11      -0.6164     5.3474     3.3324 C.ar   1 <0>      -0.2100
   12 C12      -1.7625     5.5256     4.1041 C.ar   1 <0>       0.2500
   13 N13      -2.0947     6.7916     4.5685 N.pl3  1 <0>      -0.6300
   14 C14      -1.2403     7.9374     4.2468 C.3    1 <0>       0.0900
   15 C15      -3.2995     6.9814     5.3802 C.3    1 <0>       0.0900
   16 C16      -2.5767     4.4375     4.4108 C.ar   1 <0>      -0.2100
   17 C17      -2.2568     3.1920     3.9518 C.ar   1 <0>      -0.0100
   18 C18      -0.0571    -0.5517    -1.3260 C.2    1 <0>      -0.0100
   19 C19      -1.1862    -0.5038    -2.0675 C.2    1 <0>      -0.2100
   20 C20      -2.1553     0.5711    -1.8555 C.2    1 <0>       0.5500
   21 O21      -1.9991     1.3598    -0.9417 O.2    1 <0>      -0.5000
   22 N22      -3.2211     0.6882    -2.6720 N.am   1 <0>      -0.6000
   23 O23      -4.1592     1.7288    -2.4668 O.3    1 <0>      -0.3200
   24 H24       1.5627     2.2198    -0.6271 H      1 <0>       0.0600
   25 H25       0.5267     1.8941    -2.0374 H      1 <0>       0.0500
   26 H26      -0.1696     2.6255    -0.5717 H      1 <0>       0.0800
   27 H27       0.1527    -0.6778     1.2915 H      1 <0>       0.1200
   28 H28       2.5745     1.0250     2.1791 H      1 <0>       0.0700
   29 H29       1.8260     1.9987     3.4675 H      1 <0>       0.0600
   30 H30       1.4701     0.2589     3.3460 H      1 <0>       0.0600
   31 H31       0.6027     3.9671     2.2758 H      1 <0>       0.1300
   32 H32       0.0120     6.1936     3.0969 H      1 <0>       0.1300
   33 H33      -1.1880     8.0591     3.1649 H      1 <0>       0.0600
   34 H34      -1.6582     8.8392     4.6941 H      1 <0>       0.0800
   35 H35      -0.2390     7.7662     4.6420 H      1 <0>       0.0600
   36 H36      -3.0503     6.8593     6.4343 H      1 <0>       0.0500
   37 H37      -3.6954     7.9832     5.2140 H      1 <0>       0.0700
   38 H38      -4.0490     6.2428     5.0961 H      1 <0>       0.0700
   39 H39      -3.4643     4.5800     5.0094 H      1 <0>       0.1300
   40 H40      -2.8885     2.3490     4.1901 H      1 <0>       0.1300
   41 H41       0.6094    -1.3973    -1.4112 H      1 <0>       0.1400
   42 H42      -1.3729    -1.2591    -2.8165 H      1 <0>       0.1400
   43 H43      -3.3456     0.0597    -3.4003 H      1 <0>       0.4100
   44 H44      -4.8886     1.7317    -3.1017 H      1 <0>       0.3900
@<TRIPOS>BOND
   1    1    2 1
   2    1   24 1
   3    1   25 1
   4    1   26 1
   5    2    3 2
   6    2   18 1
   7    3    4 1
   8    3   27 1
   9    4    5 1
  10    4    6 1
  11    4    7 1
  12    6   28 1
  13    6   29 1
  14    6   30 1
  15    7    8 2
  16    7    9 1
  17    9   17 ar
  18    9   10 ar
  19   10   11 ar
  20   10   31 1
  21   11   12 ar
  22   11   32 1
  23   12   13 1
  24   12   16 ar
  25   13   14 1
  26   13   15 1
  27   14   33 1
  28   14   34 1
  29   14   35 1
  30   15   36 1
  31   15   37 1
  32   15   38 1
  33   16   17 ar
  34   16   39 1
  35   17   40 1
  36   18   19 2
  37   18   41 1
  38   19   20 1
  39   19   42 1
  40   20   21 2
  41   20   22 am
  42   22   23 1
  43   22   43 1
  44   23   44 1
