@<TRIPOS>MOLECULE
ZINC000000000566
  34   35    0    0    0
SMALL
USER_CHARGES
NO_NAME
@<TRIPOS>ATOM
    1 C1       -0.9722     0.6108    -0.7951 C.3    1 <0>       0.0200
    2 O2       -0.7091    -0.7520    -0.4551 O.3    1 <0>      -0.3000
    3 C3       -0.1562    -1.5320    -1.4189 C.ar   1 <0>       0.1900
    4 C4        0.1315    -0.9866    -2.6683 C.ar   1 <0>      -0.2200
    5 C5        0.6879    -1.7576    -3.6477 C.ar   1 <0>      -0.0200
    6 C6        0.9713    -3.1045    -3.3954 C.ar   1 <0>      -0.2000
    7 C7        1.5685    -3.9555    -4.4267 C.2    1 <0>       0.0100
    8 C8        1.8201    -5.2548    -4.1202 C.2    1 <0>      -0.2600
    9 C9        1.5054    -5.7463    -2.8367 C.2    1 <0>       0.5100
   10 O10       1.7361    -6.9133    -2.5752 O.2    1 <0>      -0.4600
   11 O11       0.9584    -4.9611    -1.8955 O.3    1 <0>      -0.2700
   12 C12       0.6827    -3.6611    -2.1352 C.ar   1 <0>       0.1900
   13 C13       0.1225    -2.8623    -1.1502 C.ar   1 <0>      -0.1300
   14 C14      -0.1870    -3.4404     0.2067 C.3    1 <0>      -0.0400
   15 C15       1.0095    -3.2753     1.1079 C.2    1 <0>      -0.1600
   16 C16       0.8780    -2.6839     2.2694 C.2    1 <0>      -0.1200
   17 C17      -0.4352    -2.0484     2.6469 C.3    1 <0>      -0.1300
   18 C18       2.0399    -2.6392     3.2280 C.3    1 <0>      -0.1200
   19 H19      -0.0396     1.1030    -1.0710 H      1 <0>       0.0600
   20 H20      -1.6652     0.6483    -1.6356 H      1 <0>       0.0600
   21 H21      -1.4124     1.1206     0.0619 H      1 <0>       0.1100
   22 H22      -0.0874     0.0528    -2.8633 H      1 <0>       0.1400
   23 H23       0.9085    -1.3295    -4.6144 H      1 <0>       0.1400
   24 H24       1.8024    -3.5609    -5.4045 H      1 <0>       0.1500
   25 H25       2.2597    -5.9097    -4.8580 H      1 <0>       0.1600
   26 H26      -1.0413    -2.9185     0.6377 H      1 <0>       0.0900
   27 H27      -0.4219    -4.5000     0.1052 H      1 <0>       0.0900
   28 H28       1.9754    -3.6445     0.7962 H      1 <0>       0.1100
   29 H29      -1.0986    -2.8057     3.0647 H      1 <0>       0.0600
   30 H30      -0.2616    -1.2685     3.3884 H      1 <0>       0.0600
   31 H31      -0.8954    -1.6112     1.7608 H      1 <0>       0.0800
   32 H32       2.6296    -1.7414     3.0426 H      1 <0>       0.0600
   33 H33       1.6659    -2.6232     4.2517 H      1 <0>       0.0600
   34 H34       2.6646    -3.5205     3.0831 H      1 <0>       0.0600
@<TRIPOS>BOND
   1    1    2 1
   2    1   19 1
   3    1   20 1
   4    1   21 1
   5    2    3 1
   6    3   13 ar
   7    3    4 ar
   8    4    5 ar
   9    4   22 1
  10    5    6 ar
  11    5   23 1
  12    6   12 ar
  13    6    7 1
  14    7    8 2
  15    7   24 1
  16    8    9 1
  17    8   25 1
  18    9   10 2
  19    9   11 1
  20   11   12 1
  21   12   13 ar
  22   13   14 1
  23   14   15 1
  24   14   26 1
  25   14   27 1
  26   15   16 2
  27   15   28 1
  28   16   17 1
  29   16   18 1
  30   17   29 1
  31   17   30 1
  32   17   31 1
  33   18   32 1
  34   18   33 1
  35   18   34 1
