@<TRIPOS>MOLECULE
ZINC000003941369
  50   52    0    0    0
SMALL
USER_CHARGES
NO_NAME
@<TRIPOS>ATOM
    1 C1       -0.9250     1.2729    -0.1520 C.3    1 <0>      -0.1200
    2 C2       -0.3495    -0.1177    -0.0745 C.ar   1 <0>      -0.0600
    3 C3        0.2125    -0.6961    -1.1976 C.ar   1 <0>      -0.1300
    4 C4        0.7414    -1.9723    -1.1309 C.ar   1 <0>      -0.1000
    5 C5        0.7098    -2.6731     0.0585 C.ar   1 <0>      -0.1300
    6 C6        0.1463    -2.0948     1.1889 C.ar   1 <0>       0.1400
    7 N7        0.1130    -2.8014     2.3948 N.pl3  1 <0>      -0.6200
    8 C8       -0.0040    -4.1764     2.3858 C.ar   1 <0>       0.5200
    9 N9        0.0022    -4.8477     1.2403 N.ar   1 <0>      -0.6100
   10 C10      -0.1096    -6.1678     1.2275 C.ar   1 <0>       0.6100
   11 N11      -0.0988    -6.8277     0.0162 N.pl3  1 <0>      -0.7100
   12 C12      -0.2208    -8.2871    -0.0240 C.3    1 <0>       0.1500
   13 H13      -0.8856    -8.6182     0.7738 H      1 <0>       0.1200
   14 C14       1.1592    -8.9197     0.1665 C.3    1 <0>      -0.1300
   15 C15       2.0923    -8.4549    -0.9533 C.3    1 <0>      -0.1300
   16 C16       1.5180    -8.8816    -2.3058 C.3    1 <0>      -0.1200
   17 C17       0.1381    -8.2489    -2.4963 C.3    1 <0>      -0.1400
   18 C18      -0.7951    -8.7137    -1.3765 C.3    1 <0>       0.0200
   19 H19      -0.8859    -9.7995    -1.4064 H      1 <0>       0.1600
   20 N20      -2.1201    -8.1063    -1.5594 N.4    1 <0>      -0.6400
   21 H21      -2.4988    -8.3877    -2.4513 H      1 <0>       0.4400
   22 H22      -2.7355    -8.4129    -0.8209 H      1 <0>       0.4400
   23 H23      -2.0360    -7.1012    -1.5317 H      1 <0>       0.4300
   24 N24      -0.2311    -6.8752     2.3441 N.ar   1 <0>      -0.6000
   25 C25      -0.2464    -6.2873     3.5263 C.ar   1 <0>       0.2600
   26 C26      -0.1267    -4.8952     3.5951 C.ar   1 <0>      -0.3500
   27 C27      -0.1388    -4.1982     4.8914 C.2    1 <0>       0.5900
   28 N28      -0.1349    -4.9070     6.0377 N.am   1 <0>      -0.8400
   29 O29      -0.1523    -2.9825     4.9281 O.2    1 <0>      -0.5500
   30 C30      -0.3789    -0.8109     1.1199 C.ar   1 <0>      -0.1400
   31 H31      -0.1479     2.0012     0.0799 H      1 <0>       0.0800
   32 H32      -1.3039     1.4537    -1.1579 H      1 <0>       0.0700
   33 H33      -1.7395     1.3695     0.5659 H      1 <0>       0.0700
   34 H34       0.2382    -0.1502    -2.1292 H      1 <0>       0.1200
   35 H35       1.1793    -2.4213    -2.0101 H      1 <0>       0.1200
   36 H36       1.1223    -3.6699     0.1097 H      1 <0>       0.1400
   37 H37       0.1723    -2.3252     3.2378 H      1 <0>       0.4400
   38 H38      -0.0103    -6.3255    -0.8089 H      1 <0>       0.4100
   39 H39       1.5683    -8.6158     1.1300 H      1 <0>       0.0900
   40 H40       1.0684   -10.0055     0.1366 H      1 <0>       0.0900
   41 H41       2.1831    -7.3691    -0.9234 H      1 <0>       0.0700
   42 H42       3.0755    -8.9056    -0.8176 H      1 <0>       0.0800
   43 H43       2.1828    -8.5505    -3.1036 H      1 <0>       0.0900
   44 H44       1.4272    -9.9674    -2.3357 H      1 <0>       0.0800
   45 H45       0.2289    -7.1631    -2.4664 H      1 <0>       0.0800
   46 H46      -0.2711    -8.5529    -3.4598 H      1 <0>       0.1000
   47 H47      -0.3462    -6.8734     4.4280 H      1 <0>       0.1800
   48 H48      -0.1241    -5.8765     6.0084 H      1 <0>       0.4000
   49 H49      -0.1429    -4.4476     6.8920 H      1 <0>       0.4100
   50 H50      -0.8176    -0.3584     1.9969 H      1 <0>       0.1300
@<TRIPOS>BOND
   1    1    2 1
   2    1   31 1
   3    1   32 1
   4    1   33 1
   5    2   30 ar
   6    2    3 ar
   7    3    4 ar
   8    3   34 1
   9    4    5 ar
  10    4   35 1
  11    5    6 ar
  12    5   36 1
  13    6    7 1
  14    6   30 ar
  15    7    8 1
  16    7   37 1
  17    8   26 ar
  18    8    9 ar
  19    9   10 ar
  20   10   11 1
  21   10   24 ar
  22   11   12 1
  23   11   38 1
  24   12   13 1
  25   12   18 1
  26   12   14 1
  27   14   15 1
  28   14   39 1
  29   14   40 1
  30   15   16 1
  31   15   41 1
  32   15   42 1
  33   16   17 1
  34   16   43 1
  35   16   44 1
  36   17   18 1
  37   17   45 1
  38   17   46 1
  39   18   19 1
  40   18   20 1
  41   20   21 1
  42   20   22 1
  43   20   23 1
  44   24   25 ar
  45   25   26 ar
  46   25   47 1
  47   26   27 1
  48   27   28 am
  49   27   29 2
  50   28   48 1
  51   28   49 1
  52   30   50 1
