@<TRIPOS>MOLECULE
ZINC000005850868
  35   37    0    0    0
SMALL
USER_CHARGES
NO_NAME
@<TRIPOS>ATOM
    1 Cl1       0.0021    -0.0041     0.0020 Cl     1 <0>      -0.0400
    2 C2       -0.0215     1.7317     0.0116 C.ar   1 <0>      -0.0700
    3 C3       -1.2289     2.4161     0.0326 C.ar   1 <0>      -0.0700
    4 C4       -1.2036     3.8004     0.0395 C.ar   1 <0>      -0.0900
    5 C5        0.0274     4.4558     0.0252 C.ar   1 <0>       0.2400
    6 N6        0.0681     5.8269     0.0323 N.2    1 <0>      -0.1900
    7 N7        1.1597     6.4148     0.0197 N.2    1 <0>      -0.1600
    8 C8        1.2032     7.8792     0.0273 C.3    1 <0>       0.1500
    9 C9        2.6345     8.3388     0.1328 C.ar   1 <0>      -0.0700
   10 C10       3.6251     7.6820    -0.5730 C.ar   1 <0>      -0.0900
   11 C11       4.9381     8.1035    -0.4762 C.ar   1 <0>      -0.1200
   12 C12       5.2603     9.1822     0.3261 C.ar   1 <0>      -0.1100
   13 C13       4.2695     9.8395     1.0312 C.ar   1 <0>      -0.1200
   14 C14       2.9560     9.4206     0.9310 C.ar   1 <0>      -0.0900
   15 C15       0.5991     8.4063    -1.2488 C.ar   1 <0>       0.1300
   16 C16       0.0190     7.5275    -2.1436 C.ar   1 <0>      -0.1600
   17 C17      -0.5344     8.0228    -3.3147 C.ar   1 <0>      -0.0700
   18 C18      -0.4831     9.3893    -3.5424 C.ar   1 <0>      -0.1700
   19 C19       0.1138    10.2069    -2.6012 C.ar   1 <0>       0.1100
   20 N20       0.6256     9.7014    -1.4961 N.ar   1 <0>      -0.4700
   21 N21       1.1607     3.7635     0.0052 N.ar   1 <0>      -0.4500
   22 C22       1.1656     2.4479     0.0041 C.ar   1 <0>       0.1200
   23 H23      -2.1669     1.8809     0.0429 H      1 <0>       0.1600
   24 H24      -2.1243     4.3649     0.0554 H      1 <0>       0.1600
   25 H25       0.6371     8.2551     0.8796 H      1 <0>       0.1200
   26 H26       3.3734     6.8393    -1.1998 H      1 <0>       0.1200
   27 H27       5.7121     7.5900    -1.0271 H      1 <0>       0.1200
   28 H28       6.2862     9.5111     0.4023 H      1 <0>       0.1200
   29 H29       4.5213    10.6820     1.6583 H      1 <0>       0.1200
   30 H30       2.1819     9.9342     1.4819 H      1 <0>       0.1200
   31 H31      -0.0029     6.4683    -1.9337 H      1 <0>       0.1300
   32 H32      -0.9942     7.3597    -4.0325 H      1 <0>       0.1400
   33 H33      -0.9038     9.8097    -4.4438 H      1 <0>       0.1400
   34 H34       0.1583    11.2725    -2.7712 H      1 <0>       0.1600
   35 H35       2.1069     1.9187    -0.0121 H      1 <0>       0.1700
@<TRIPOS>BOND
   1    1    2 1
   2    2   22 ar
   3    2    3 ar
   4    3    4 ar
   5    3   23 1
   6    4    5 ar
   7    4   24 1
   8    5    6 1
   9    5   21 ar
  10    6    7 2
  11    7    8 1
  12    8    9 1
  13    8   15 1
  14    8   25 1
  15    9   14 ar
  16    9   10 ar
  17   10   11 ar
  18   10   26 1
  19   11   12 ar
  20   11   27 1
  21   12   13 ar
  22   12   28 1
  23   13   14 ar
  24   13   29 1
  25   14   30 1
  26   15   20 ar
  27   15   16 ar
  28   16   17 ar
  29   16   31 1
  30   17   18 ar
  31   17   32 1
  32   18   19 ar
  33   18   33 1
  34   19   20 ar
  35   19   34 1
  36   21   22 ar
  37   22   35 1
