@<TRIPOS>MOLECULE
ZINC000004212164
73    74    1     0     0
SMALL
USER_CHARGES
@<TRIPOS>ATOM
1      C1      0.3562    0.5020    0.8246 C.3      1 ZINC000004212164   -0.1500
2      C2      0.1646   -1.0129    0.7274 C.3      1 ZINC000004212164   -0.1200
3      C3     -1.3251   -1.3302    0.5826 C.3      1 ZINC000004212164   -0.1200
4      C4     -1.5168   -2.8451    0.4854 C.3      1 ZINC000004212164   -0.1100
5      C5     -3.0065   -3.1624    0.3405 C.3      1 ZINC000004212164   -0.0900
6      H6     -3.5705   -2.7127    1.1576 H        1 ZINC000004212164    0.1400
7      C7     -3.5265   -2.6634   -0.9998 C.2      1 ZINC000004212164    0.4500
8      O8     -4.3445   -1.7761   -1.0581 O.2      1 ZINC000004212164   -0.4500
9      O9     -3.0480   -3.2409   -2.1206 O.3      1 ZINC000004212164   -0.3400
10     C10    -3.9516   -3.1898   -3.2631 C.3      1 ZINC000004212164    0.0900
11     H11    -3.5229   -3.7428   -4.0988 H        1 ZINC000004212164    0.1500
12     C12    -4.1906   -1.7348   -3.6715 C.3      1 ZINC000004212164   -0.1900
13     C13    -5.2739   -3.8353   -2.8361 C.3      1 ZINC000004212164    0.0700
14     H14    -5.9755   -3.8002   -3.6696 H        1 ZINC000004212164    0.1600
15     N15    -5.8315   -3.0889   -1.7055 N.am     1 ZINC000004212164   -0.7400
16     C16    -7.0850   -2.5986   -1.7742 C.2      1 ZINC000004212164    0.5600
17     O17    -7.7531   -2.7756   -2.7745 O.2      1 ZINC000004212164   -0.5100
18     C18    -7.6465   -1.8469   -0.6355 C.ar     1 ZINC000004212164   -0.1500
19     C19    -6.8794   -1.6364    0.5137 C.ar     1 ZINC000004212164   -0.0800
20     C20    -7.4065   -0.9340    1.5758 C.ar     1 ZINC000004212164   -0.1100
21     C21    -8.6955   -0.4326    1.5126 C.ar     1 ZINC000004212164   -0.0800
22     C22    -9.4693   -0.6322    0.3799 C.ar     1 ZINC000004212164    0.1100
23     N23   -10.7731   -0.1215    0.3224 N.am     1 ZINC000004212164   -0.6800
24     C24   -11.0676    1.0443    0.9311 C.2      1 ZINC000004212164    0.4900
25     O25   -10.1854    1.7015    1.4421 O.2      1 ZINC000004212164   -0.5300
26     C26    -8.9482   -1.3360   -0.7032 C.ar     1 ZINC000004212164    0.1500
27     O27    -9.7019   -1.5341   -1.8145 O.3      1 ZINC000004212164   -0.4700
28     C28    -5.0650   -5.2550   -2.4303 C.2      1 ZINC000004212164    0.4800
29     O29    -5.1340   -6.0757   -3.3143 O.2      1 ZINC000004212164   -0.4600
30     O30    -4.8169   -5.7184   -1.2354 O.3      1 ZINC000004212164   -0.3300
31     C31    -4.7132   -4.9186   -0.0459 C.3      1 ZINC000004212164    0.0500
32     H32    -5.1927   -3.9543   -0.2145 H        1 ZINC000004212164    0.0900
33     C33    -5.4085   -5.6368    1.1123 C.3      1 ZINC000004212164   -0.1500
34     C34    -3.2313   -4.6983    0.3099 C.3      1 ZINC000004212164    0.0700
35     H35    -2.5939   -5.1511   -0.4496 H        1 ZINC000004212164    0.1200
36     O36    -2.9411   -5.2754    1.6103 O.3      1 ZINC000004212164   -0.3400
37     C37    -2.5394   -6.5559    1.6328 C.2      1 ZINC000004212164    0.4600
38     O38    -2.4337   -7.1742    0.6001 O.2      1 ZINC000004212164   -0.4800
39     C39    -2.2202   -7.2225    2.9461 C.3      1 ZINC000004212164   -0.1100
40     C40    -1.7900   -8.6688    2.6927 C.3      1 ZINC000004212164   -0.0900
41     C41    -1.3470   -9.3075    4.0105 C.3      1 ZINC000004212164   -0.1500
42     C42    -2.9669   -9.4570    2.1142 C.3      1 ZINC000004212164   -0.1600
43     H43     1.4175    0.7281    0.9278 H        1 ZINC000004212164    0.0600
44     H44    -0.0301    0.9757   -0.0778 H        1 ZINC000004212164    0.0500
45     H45    -0.1822    0.8813    1.6931 H        1 ZINC000004212164    0.0600
46     H46     0.7030   -1.3922   -0.1410 H        1 ZINC000004212164    0.0600
47     H47     0.5509   -1.4866    1.6299 H        1 ZINC000004212164    0.0700
48     H48    -1.8636   -0.9509    1.4511 H        1 ZINC000004212164    0.0700
49     H49    -1.7115   -0.8565   -0.3199 H        1 ZINC000004212164    0.0600
50     H50    -0.9783   -3.2244   -0.3831 H        1 ZINC000004212164    0.0800
51     H51    -1.1304   -3.3188    1.3879 H        1 ZINC000004212164    0.0900
52     H52    -3.2412   -1.2729   -3.9425 H        1 ZINC000004212164    0.0800
53     H53    -4.8667   -1.7036   -4.5258 H        1 ZINC000004212164    0.0800
54     H54    -4.6340   -1.1913   -2.8371 H        1 ZINC000004212164    0.1000
55     H55    -5.2985   -2.9477   -0.9075 H        1 ZINC000004212164    0.4100
56     H56    -5.8732   -2.0248    0.5696 H        1 ZINC000004212164    0.1200
57     H57    -6.8109   -0.7740    2.4624 H        1 ZINC000004212164    0.1400
58     H58    -9.1002    0.1164    2.3500 H        1 ZINC000004212164    0.1400
59     H59   -11.4636   -0.6072   -0.1554 H        1 ZINC000004212164    0.4200
60     H60   -12.0891    1.3934    0.9639 H        1 ZINC000004212164    0.1500
61     H61    -9.6134   -0.8372   -2.4790 H        1 ZINC000004212164    0.4000
62     H62    -4.9310   -6.6022    1.2803 H        1 ZINC000004212164    0.0700
63     H63    -5.3303   -5.0309    2.0150 H        1 ZINC000004212164    0.1000
64     H64    -6.4596   -5.7892    0.8669 H        1 ZINC000004212164    0.0800
65     H65    -1.4112   -6.6840    3.4397 H        1 ZINC000004212164    0.1100
66     H66    -3.1048   -7.2128    3.5829 H        1 ZINC000004212164    0.1100
67     H67    -0.9608   -8.6826    1.9854 H        1 ZINC000004212164    0.0800
68     H68    -2.1763   -9.2937    4.7178 H        1 ZINC000004212164    0.0600
69     H69    -1.0406  -10.3378    3.8300 H        1 ZINC000004212164    0.0600
70     H70    -0.5086   -8.7459    4.4227 H        1 ZINC000004212164    0.0600
71     H71    -3.7962   -9.4432    2.8214 H        1 ZINC000004212164    0.0500
72     H72    -3.2825   -9.0020    1.1753 H        1 ZINC000004212164    0.0700
73     H73    -2.6604  -10.4873    1.9336 H        1 ZINC000004212164    0.0600
@<TRIPOS>BOND
1     1     2     1
2     1     43    1
3     1     44    1
4     1     45    1
5     2     3     1
6     2     46    1
7     2     47    1
8     3     4     1
9     3     48    1
10    3     49    1
11    4     5     1
12    4     50    1
13    4     51    1
14    5     6     1
15    5     34    1
16    5     7     1
17    7     8     2
18    7     9     1
19    9     10    1
20    10    11    1
21    10    12    1
22    10    13    1
23    12    52    1
24    12    53    1
25    12    54    1
26    13    14    1
27    13    15    1
28    13    28    1
29    15    16    am
30    15    55    1
31    16    17    2
32    16    18    1
33    18    26    ar
34    18    19    ar
35    19    20    ar
36    19    56    1
37    20    21    ar
38    20    57    1
39    21    22    ar
40    21    58    1
41    22    23    1
42    22    26    ar
43    23    24    am
44    23    59    1
45    24    25    2
46    24    60    1
47    26    27    1
48    27    61    1
49    28    29    2
50    28    30    1
51    30    31    1
52    31    32    1
53    31    33    1
54    31    34    1
55    33    62    1
56    33    63    1
57    33    64    1
58    34    35    1
59    34    36    1
60    36    37    1
61    37    38    2
62    37    39    1
63    39    40    1
64    39    65    1
65    39    66    1
66    40    41    1
67    40    42    1
68    40    67    1
69    41    68    1
70    41    69    1
71    41    70    1
72    42    71    1
73    42    72    1
74    42    73    1
@<TRIPOS>SUBSTRUCTURE
1   ZINC000004212164 1     RESIDUE    1   A     ZIN   1
