@<TRIPOS>MOLECULE
ZINC000009293016
52    55    1     0     0
SMALL
USER_CHARGES
@<TRIPOS>ATOM
1      O1      2.0111    3.6132   -1.1166 O.2      1 ZINC000009293016   -0.5000
2      C2      1.0427    3.1148   -0.5763 C.2      1 ZINC000009293016    0.6100
3      N3      1.1435    1.9013    0.0014 N.am     1 ZINC000009293016   -0.6700
4      C4      2.3329    1.1732   -0.1042 C.ar     1 ZINC000009293016    0.2000
5      C5      2.2943   -0.2109   -0.2127 C.ar     1 ZINC000009293016   -0.1600
6      C6      3.4707   -0.9269   -0.3167 C.ar     1 ZINC000009293016    0.0000
7      C7      4.6861   -0.2673   -0.3124 C.ar     1 ZINC000009293016   -0.6900
8      S8      6.1846   -1.1847   -0.4448 S.o2     1 ZINC000009293016    2.6900
9      O9      7.2029   -0.3743    0.1259 O.2      1 ZINC000009293016   -0.9500
10     O10     5.8918   -2.4991    0.0089 O.2      1 ZINC000009293016   -0.9500
11     N11     6.5390   -1.3147   -2.0572 N.am     1 ZINC000009293016   -1.0000
12     C12     6.0311   -2.4450   -2.8465 C.3      1 ZINC000009293016    0.1200
13     C13     5.2917   -1.8980   -4.0717 C.3      1 ZINC000009293016   -0.1400
14     C14     6.2195   -0.9580   -4.8448 C.3      1 ZINC000009293016   -0.1200
15     C15     6.6131    0.2210   -3.9520 C.3      1 ZINC000009293016   -0.1400
16     C16     7.3624   -0.2987   -2.7269 C.3      1 ZINC000009293016    0.1200
17     C17     4.7279    1.1107   -0.2050 C.ar     1 ZINC000009293016    0.0000
18     C18     3.5550    1.8331   -0.1065 C.ar     1 ZINC000009293016   -0.1400
19     C19    -0.2427    3.8420   -0.5475 C.2      1 ZINC000009293016   -0.0200
20     N20    -1.3642    3.4245    0.0059 N.2      1 ZINC000009293016   -0.2500
21     N21    -2.2929    4.2983   -0.1482 N.pl3    1 ZINC000009293016   -0.3600
22     C22    -1.8118    5.3735   -0.8355 C.2      1 ZINC000009293016    0.0600
23     C23    -2.5669    6.5882   -1.2140 C.ar     1 ZINC000009293016   -0.0600
24     C24    -1.9623    7.8419   -1.1346 C.ar     1 ZINC000009293016   -0.0700
25     C25    -2.6713    8.9716   -1.4895 C.ar     1 ZINC000009293016   -0.1200
26     C26    -3.9806    8.8651   -1.9240 C.ar     1 ZINC000009293016   -0.0900
27     C27    -4.5902    7.6270   -2.0068 C.ar     1 ZINC000009293016   -0.1400
28     C28    -3.8899    6.4837   -1.6592 C.ar     1 ZINC000009293016    0.1200
29     O29    -4.4878    5.2667   -1.7405 O.3      1 ZINC000009293016   -0.5000
30     C30    -0.4959    5.1156   -1.1021 C.2      1 ZINC000009293016   -0.1500
31     H31     0.3911    1.5329    0.4903 H        1 ZINC000009293016    0.4200
32     H32     1.3455   -0.7267   -0.2153 H        1 ZINC000009293016    0.1400
33     H33     3.4414   -2.0032   -0.4011 H        1 ZINC000009293016    0.1400
34     H34     6.8646   -3.0681   -3.1708 H        1 ZINC000009293016    0.0800
35     H35     5.3451   -3.0357   -2.2394 H        1 ZINC000009293016    0.0900
36     H36     4.9931   -2.7252   -4.7156 H        1 ZINC000009293016    0.0800
37     H37     4.4066   -1.3505   -3.7479 H        1 ZINC000009293016    0.0700
38     H38     7.1157   -1.4998   -5.1469 H        1 ZINC000009293016    0.0700
39     H39     5.7041   -0.5866   -5.7305 H        1 ZINC000009293016    0.0600
40     H40     7.2550    0.9021   -4.5108 H        1 ZINC000009293016    0.0800
41     H41     5.7155    0.7486   -3.6294 H        1 ZINC000009293016    0.0700
42     H42     7.5575    0.5257   -2.0410 H        1 ZINC000009293016    0.0900
43     H43     8.3052   -0.7482   -3.0387 H        1 ZINC000009293016    0.0800
44     H44     5.6787    1.6229   -0.2024 H        1 ZINC000009293016    0.1400
45     H45     3.5883    2.9094   -0.0227 H        1 ZINC000009293016    0.1500
46     H46    -3.2025    4.2068    0.1761 H        1 ZINC000009293016    0.4500
47     H47    -0.9407    7.9290   -0.7955 H        1 ZINC000009293016    0.1400
48     H48    -2.2024    9.9425   -1.4274 H        1 ZINC000009293016    0.1300
49     H49    -4.5292    9.7536   -2.1997 H        1 ZINC000009293016    0.1300
50     H50    -5.6126    7.5509   -2.3464 H        1 ZINC000009293016    0.1400
51     H51    -4.3808    4.8324   -2.5978 H        1 ZINC000009293016    0.4000
52     H52     0.2006    5.7488   -1.6315 H        1 ZINC000009293016    0.1700
@<TRIPOS>BOND
1     1     2     2
2     2     3     am
3     2     19    1
4     3     4     1
5     3     31    1
6     4     18    ar
7     4     5     ar
8     5     6     ar
9     5     32    1
10    6     7     ar
11    6     33    1
12    7     8     1
13    7     17    ar
14    8     9     2
15    8     10    2
16    8     11    am
17    11    16    1
18    11    12    1
19    12    13    1
20    12    34    1
21    12    35    1
22    13    14    1
23    13    36    1
24    13    37    1
25    14    15    1
26    14    38    1
27    14    39    1
28    15    16    1
29    15    40    1
30    15    41    1
31    16    42    1
32    16    43    1
33    17    18    ar
34    17    44    1
35    18    45    1
36    19    30    1
37    19    20    2
38    20    21    1
39    21    22    1
40    21    46    1
41    22    23    1
42    22    30    2
43    23    28    ar
44    23    24    ar
45    24    25    ar
46    24    47    1
47    25    26    ar
48    25    48    1
49    26    27    ar
50    26    49    1
51    27    28    ar
52    27    50    1
53    28    29    1
54    29    51    1
55    30    52    1
@<TRIPOS>SUBSTRUCTURE
1   ZINC000009293016 1     RESIDUE    1   A     ZIN   1
