@<TRIPOS>MOLECULE
ZINC000003942809
  47   50    0    0    0
SMALL
USER_CHARGES
NO_NAME
@<TRIPOS>ATOM
    1 N1       -0.0169     1.3925     0.0097 N.pl3  1 <0>      -0.8700
    2 C2        0.0021    -0.0041     0.0020 C.ar   1 <0>       0.2300
    3 C3       -1.1903    -0.7163     0.0038 C.ar   1 <0>      -0.1700
    4 C4       -1.1680    -2.0974    -0.0043 C.ar   1 <0>      -0.0600
    5 C5        0.0396    -2.7708    -0.0142 C.ar   1 <0>      -0.1600
    6 C6        1.2288    -2.0646    -0.0155 C.ar   1 <0>      -0.1100
    7 C7        2.5425    -2.8029    -0.0262 C.3    1 <0>       0.0500
    8 N8        2.9628    -3.0343    -1.4146 N.4    1 <0>      -0.3900
    9 H9        2.2300    -3.5017    -1.9271 H      1 <0>       0.4300
   10 C10       3.3028    -1.7447    -2.0686 C.3    1 <0>       0.0000
   11 C11       4.2225    -2.1727    -3.2397 C.3    1 <0>      -0.1700
   12 C12       5.0448    -3.3303    -2.6283 C.3    1 <0>       0.1400
   13 H13       6.0093    -2.9644    -2.2763 H      1 <0>       0.1200
   14 N14       5.2356    -4.3954    -3.6159 N.pl3  1 <0>      -0.7400
   15 C15       6.3051    -4.3358    -4.5070 C.ar   1 <0>       0.2100
   16 C16       6.4930    -5.3524    -5.4636 C.ar   1 <0>      -0.0600
   17 C17       5.6277    -6.4548    -5.5647 C.ar   1 <0>      -0.1600
   18 C18       5.8769    -7.3966    -6.5172 C.ar   1 <0>       0.0800
   19 N19       6.9082    -7.2988    -7.3448 N.ar   1 <0>      -0.4800
   20 C20       7.7561    -6.2979    -7.3077 C.ar   1 <0>       0.1500
   21 C21       7.5884    -5.2730    -6.3618 C.ar   1 <0>      -0.0800
   22 C22       8.4681    -4.1824    -6.2835 C.ar   1 <0>      -0.1300
   23 C23       8.2635    -3.2125    -5.3487 C.ar   1 <0>      -0.0800
   24 C24       7.1893    -3.2773    -4.4665 C.ar   1 <0>      -0.1800
   25 C25       4.2013    -3.8421    -1.4447 C.3    1 <0>      -0.0200
   26 C26       1.2136    -0.6839    -0.0132 C.ar   1 <0>      -0.1800
   27 H27       0.8165     1.8889     0.0044 H      1 <0>       0.4000
   28 H28      -0.8634     1.8661     0.0163 H      1 <0>       0.4100
   29 H29      -2.1338    -0.1909     0.0118 H      1 <0>       0.1300
   30 H30      -2.0948    -2.6519    -0.0026 H      1 <0>       0.1300
   31 H31       0.0542    -3.8507    -0.0205 H      1 <0>       0.1300
   32 H32       3.2977    -2.2082     0.4877 H      1 <0>       0.1400
   33 H33       2.4257    -3.7599     0.4823 H      1 <0>       0.1400
   34 H34       2.4043    -1.2551    -2.4441 H      1 <0>       0.1400
   35 H35       3.8375    -1.0925    -1.3781 H      1 <0>       0.1300
   36 H36       3.6316    -2.5241    -4.0856 H      1 <0>       0.1000
   37 H37       4.8746    -1.3518    -3.5379 H      1 <0>       0.1200
   38 H38       4.6174    -5.1422    -3.6494 H      1 <0>       0.4000
   39 H39       4.7821    -6.5538    -4.9002 H      1 <0>       0.1300
   40 H40       5.2160    -8.2467    -6.6002 H      1 <0>       0.1500
   41 H41       8.5814    -6.2621    -8.0035 H      1 <0>       0.1700
   42 H42       9.3053    -4.1122    -6.9622 H      1 <0>       0.1400
   43 H43       8.9449    -2.3764    -5.2942 H      1 <0>       0.1300
   44 H44       7.0513    -2.4944    -3.7354 H      1 <0>       0.1200
   45 H45       4.7515    -3.7116    -0.5128 H      1 <0>       0.1500
   46 H46       3.9570    -4.8944    -1.5904 H      1 <0>       0.1400
   47 H47       2.1426    -0.1330    -0.0142 H      1 <0>       0.1300
@<TRIPOS>BOND
   1    1    2 1
   2    1   27 1
   3    1   28 1
   4    2   26 ar
   5    2    3 ar
   6    3    4 ar
   7    3   29 1
   8    4    5 ar
   9    4   30 1
  10    5    6 ar
  11    5   31 1
  12    6    7 1
  13    6   26 ar
  14    7    8 1
  15    7   32 1
  16    7   33 1
  17    8    9 1
  18    8   25 1
  19    8   10 1
  20   10   11 1
  21   10   34 1
  22   10   35 1
  23   11   12 1
  24   11   36 1
  25   11   37 1
  26   12   13 1
  27   12   14 1
  28   12   25 1
  29   14   15 1
  30   14   38 1
  31   15   24 ar
  32   15   16 ar
  33   16   21 ar
  34   16   17 ar
  35   17   18 ar
  36   17   39 1
  37   18   19 ar
  38   18   40 1
  39   19   20 ar
  40   20   21 ar
  41   20   41 1
  42   21   22 ar
  43   22   23 ar
  44   22   42 1
  45   23   24 ar
  46   23   43 1
  47   24   44 1
  48   25   45 1
  49   25   46 1
  50   26   47 1
