@<TRIPOS>MOLECULE
ZINC000020149017
  45   48    0    0    0
SMALL
USER_CHARGES
NO_NAME
@<TRIPOS>ATOM
    1 C1       -0.0203     1.3348    -0.1419 C.2    1 <0>       0.3100
    2 N2        1.1950     1.7913    -0.2667 N.2    1 <0>      -0.4900
    3 C3        2.0771     0.7828    -0.1350 C.ar   1 <0>       0.3600
    4 N4        3.4101     0.6948    -0.1743 N.ar   1 <0>      -0.5400
    5 C5        4.0097    -0.4706    -0.0051 C.ar   1 <0>       0.6000
    6 N6        5.3950    -0.5235    -0.0523 N.pl3  1 <0>      -0.6300
    7 C7        6.1364     0.6569    -0.1585 C.ar   1 <0>       0.1600
    8 C8        5.6825     1.8210     0.4484 C.ar   1 <0>      -0.1100
    9 C9        6.4176     2.9853     0.3418 C.ar   1 <0>      -0.1000
   10 C10       7.6044     2.9930    -0.3681 C.ar   1 <0>      -0.1400
   11 C11       8.0591     1.8359    -0.9735 C.ar   1 <0>      -0.1000
   12 C12       7.3315     0.6669    -0.8664 C.ar   1 <0>      -0.1500
   13 N13       3.3330    -1.5920     0.2087 N.ar   1 <0>      -0.6000
   14 C14       2.0059    -1.5921     0.2623 C.ar   1 <0>       0.4500
   15 O15       1.3230    -2.7420     0.4815 O.3    1 <0>      -0.3000
   16 C16       2.0948    -3.9330     0.6489 C.3    1 <0>       0.0700
   17 C17       1.1576    -5.1192     0.8844 C.3    1 <0>      -0.0900
   18 C18       0.3119    -5.3575    -0.3681 C.3    1 <0>      -0.1100
   19 C19      -0.6254    -6.5437    -0.1325 C.3    1 <0>      -0.1200
   20 C20       0.2016    -7.7948     0.1701 C.3    1 <0>      -0.1200
   21 C21       1.0473    -7.5565     1.4227 C.3    1 <0>      -0.1200
   22 C22       1.9846    -6.3703     1.1871 C.3    1 <0>      -0.1100
   23 C23       1.3295    -0.3857     0.0890 C.ar   1 <0>      -0.1300
   24 N24       0.0039     0.0013     0.0783 N.pl3  1 <0>      -0.5700
   25 H25      -0.9157     1.9357    -0.2013 H      1 <0>       0.2300
   26 H26       5.8493    -1.3796    -0.0115 H      1 <0>       0.4200
   27 H27       4.7556     1.8157     1.0026 H      1 <0>       0.1300
   28 H28       6.0651     3.8908     0.8132 H      1 <0>       0.1200
   29 H29       8.1771     3.9049    -0.4501 H      1 <0>       0.1200
   30 H30       8.9861     1.8454    -1.5275 H      1 <0>       0.1200
   31 H31       7.6872    -0.2365    -1.3395 H      1 <0>       0.1200
   32 H32       2.6876    -4.1109    -0.2484 H      1 <0>       0.0700
   33 H33       2.7584    -3.8185     1.5060 H      1 <0>       0.0700
   34 H34       0.5032    -4.9031     1.7290 H      1 <0>       0.0800
   35 H35      -0.2773    -4.4662    -0.5837 H      1 <0>       0.0700
   36 H36       0.9662    -5.5736    -1.2126 H      1 <0>       0.0600
   37 H37      -1.2797    -6.3276     0.7120 H      1 <0>       0.0600
   38 H38      -1.2278    -6.7135    -1.0249 H      1 <0>       0.0600
   39 H39      -0.4661    -8.6399     0.3380 H      1 <0>       0.0600
   40 H40       0.8560    -8.0109    -0.6744 H      1 <0>       0.0600
   41 H41       0.3930    -7.3404     2.2672 H      1 <0>       0.0600
   42 H42       1.6365    -8.4478     1.6383 H      1 <0>       0.0700
   43 H43       2.6389    -6.5864     0.3426 H      1 <0>       0.0700
   44 H44       2.5871    -6.2005     2.0795 H      1 <0>       0.0700
   45 H45      -0.7655    -0.5752     0.2068 H      1 <0>       0.4300
@<TRIPOS>BOND
   1    1   24 1
   2    1    2 2
   3    1   25 1
   4    2    3 1
   5    3   23 ar
   6    3    4 ar
   7    4    5 ar
   8    5    6 1
   9    5   13 ar
  10    6    7 1
  11    6   26 1
  12    7   12 ar
  13    7    8 ar
  14    8    9 ar
  15    8   27 1
  16    9   10 ar
  17    9   28 1
  18   10   11 ar
  19   10   29 1
  20   11   12 ar
  21   11   30 1
  22   12   31 1
  23   13   14 ar
  24   14   15 1
  25   14   23 ar
  26   15   16 1
  27   16   17 1
  28   16   32 1
  29   16   33 1
  30   17   22 1
  31   17   18 1
  32   17   34 1
  33   18   19 1
  34   18   35 1
  35   18   36 1
  36   19   20 1
  37   19   37 1
  38   19   38 1
  39   20   21 1
  40   20   39 1
  41   20   40 1
  42   21   22 1
  43   21   41 1
  44   21   42 1
  45   22   43 1
  46   22   44 1
  47   23   24 1
  48   24   45 1
