@<TRIPOS>MOLECULE
ZINC000001661187
32    34    1     0     0
SMALL
USER_CHARGES
@<TRIPOS>ATOM
1      N1     -0.0167    1.3795    0.0096 N.pl3    1 ZINC000001661187   -0.8100
2      C2      0.0021   -0.0041    0.0020 C.ar     1 ZINC000001661187    0.5400
3      C3     -1.1956   -0.7388    0.0037 C.ar     1 ZINC000001661187   -0.1100
4      N4     -2.5116   -0.4148    0.0116 N.2      1 ZINC000001661187   -0.4500
5      C5     -3.2254   -1.5027    0.0091 C.2      1 ZINC000001661187    0.2600
6      N6     -2.4093   -2.5952   -0.0007 N.pl3    1 ZINC000001661187   -0.4800
7      C7     -2.8367   -3.9965   -0.0062 C.3      1 ZINC000001661187    0.3100
8      H8     -2.1454   -4.5970    0.5852 H        1 ZINC000001661187    0.1500
9      O9     -4.1641   -4.1047    0.5345 O.3      1 ZINC000001661187   -0.3300
10     C10    -5.0798   -4.0398   -0.5799 C.3      1 ZINC000001661187    0.0300
11     H11    -5.2085   -3.0095   -0.9114 H        1 ZINC000001661187    0.1000
12     C12    -6.4291   -4.6560   -0.2051 C.3      1 ZINC000001661187    0.0800
13     O13    -7.0588   -3.8519    0.7945 O.3      1 ZINC000001661187   -0.5600
14     C14    -4.3768   -4.8818   -1.6750 C.3      1 ZINC000001661187    0.0500
15     H15    -4.5482   -5.9466   -1.5170 H        1 ZINC000001661187    0.1000
16     O16    -4.8090   -4.4861   -2.9784 O.3      1 ZINC000001661187   -0.5500
17     C17    -2.8835   -4.5243   -1.4533 C.3      1 ZINC000001661187    0.0800
18     H18    -2.5688   -3.7494   -2.1523 H        1 ZINC000001661187    0.0900
19     O19    -2.0645   -5.6867   -1.5952 O.3      1 ZINC000001661187   -0.5400
20     C20    -1.1146   -2.1414   -0.0043 C.ar     1 ZINC000001661187    0.3400
21     N21     0.0821   -2.7199   -0.0127 N.ar     1 ZINC000001661187   -0.5700
22     C22     1.1808   -1.9904   -0.0135 C.ar     1 ZINC000001661187    0.5700
23     F23     2.3779   -2.6165   -0.0221 F        1 ZINC000001661187   -0.0700
24     N24     1.1533   -0.6679   -0.0125 N.ar     1 ZINC000001661187   -0.6000
25     H25     0.8167    1.8759    0.0043 H        1 ZINC000001661187    0.4200
26     H26    -0.8632    1.8531    0.0162 H        1 ZINC000001661187    0.4200
27     H27    -4.3049   -1.5356    0.0143 H        1 ZINC000001661187    0.2200
28     H28    -7.0657   -4.7017   -1.0887 H        1 ZINC000001661187    0.0700
29     H29    -6.2736   -5.6626    0.1832 H        1 ZINC000001661187    0.0600
30     H30    -7.9208   -4.1837    1.0807 H        1 ZINC000001661187    0.3900
31     H31    -5.7557   -4.6082   -3.1327 H        1 ZINC000001661187    0.3900
32     H32    -2.1051   -6.0917   -2.4723 H        1 ZINC000001661187    0.4000
@<TRIPOS>BOND
1     1     2     1
2     1     25    1
3     1     26    1
4     2     24    ar
5     2     3     ar
6     3     20    ar
7     3     4     1
8     4     5     2
9     5     6     1
10    5     27    1
11    6     7     1
12    6     20    1
13    7     8     1
14    7     17    1
15    7     9     1
16    9     10    1
17    10    11    1
18    10    12    1
19    10    14    1
20    12    13    1
21    12    28    1
22    12    29    1
23    13    30    1
24    14    15    1
25    14    16    1
26    14    17    1
27    16    31    1
28    17    18    1
29    17    19    1
30    19    32    1
31    20    21    ar
32    21    22    ar
33    22    23    1
34    22    24    ar
@<TRIPOS>SUBSTRUCTURE
1   ZINC000001661187 1     RESIDUE    1   A     ZIN   1
