@<TRIPOS>MOLECULE
ZINC000003815901
  40   43    0    0    0
SMALL
USER_CHARGES
NO_NAME
@<TRIPOS>ATOM
    1 N1        0.1463     1.2377    -0.1260 N.am   1 <0>      -0.8500
    2 C2        0.1422    -0.1097    -0.1585 C.2    1 <0>       0.5700
    3 O3        1.1915    -0.7190    -0.2341 O.2    1 <0>      -0.5400
    4 C4       -1.1367    -0.8458    -0.1024 C.ar   1 <0>      -0.1500
    5 C5       -2.3449    -0.1414    -0.0212 C.ar   1 <0>      -0.0700
    6 C6       -3.5339    -0.8100     0.0308 C.ar   1 <0>      -0.1200
    7 C7       -3.5558    -2.1995     0.0041 C.ar   1 <0>       0.0800
    8 N8       -4.5662    -3.1370     0.0417 N.pl3  1 <0>      -0.5900
    9 C9       -3.9776    -4.3724    -0.0156 C.2    1 <0>       0.3300
   10 C10      -4.7023    -5.6604    -0.0016 C.ar   1 <0>      -0.0300
   11 C11      -6.0967    -5.6782     0.0691 C.ar   1 <0>      -0.0800
   12 C12      -6.7688    -6.8809     0.0820 C.ar   1 <0>      -0.1200
   13 C13      -6.0608    -8.0750     0.0252 C.ar   1 <0>       0.1000
   14 O14      -6.7266    -9.2584     0.0386 O.3    1 <0>      -0.2500
   15 C15      -6.5823   -10.0594     1.1269 C.ar   1 <0>       0.1200
   16 C16      -7.1340   -11.3325     1.1306 C.ar   1 <0>      -0.1300
   17 C17      -6.9862   -12.1451     2.2378 C.ar   1 <0>      -0.0700
   18 C18      -6.2886   -11.6902     3.3429 C.ar   1 <0>      -0.0700
   19 Cl19     -6.1043   -12.7134     4.7331 Cl     1 <0>      -0.0700
   20 C20      -5.7372   -10.4211     3.3411 C.ar   1 <0>      -0.0700
   21 C21      -5.8782    -9.6073     2.2338 C.ar   1 <0>      -0.1800
   22 C22      -4.6733    -8.0613    -0.0456 C.ar   1 <0>      -0.1400
   23 C23      -3.9945    -6.8623    -0.0647 C.ar   1 <0>      -0.0500
   24 N24      -2.6755    -4.2411    -0.0854 N.2    1 <0>      -0.4600
   25 C25      -2.3511    -2.9242    -0.0774 C.ar   1 <0>       0.0400
   26 C26      -1.1385    -2.2370    -0.1361 C.ar   1 <0>       0.0100
   27 H27       0.9864     1.7212    -0.1628 H      1 <0>       0.4100
   28 H28      -0.6911     1.7240    -0.0697 H      1 <0>       0.4000
   29 H29      -2.3356     0.9384     0.0008 H      1 <0>       0.1400
   30 H30      -4.4600    -0.2579     0.0933 H      1 <0>       0.1300
   31 H31      -5.5173    -2.9553     0.0985 H      1 <0>       0.4300
   32 H32      -6.6477    -4.7504     0.1139 H      1 <0>       0.1300
   33 H33      -7.8474    -6.8955     0.1366 H      1 <0>       0.1400
   34 H34      -7.6789   -11.6878     0.2684 H      1 <0>       0.1400
   35 H35      -7.4158   -13.1360     2.2412 H      1 <0>       0.1400
   36 H36      -5.1931   -10.0679     4.2045 H      1 <0>       0.1400
   37 H37      -5.4477    -8.6168     2.2328 H      1 <0>       0.1400
   38 H38      -4.1263    -8.9915    -0.0896 H      1 <0>       0.1400
   39 H39      -2.9160    -6.8524    -0.1202 H      1 <0>       0.1500
   40 H40      -0.2079    -2.7807    -0.2042 H      1 <0>       0.1500
@<TRIPOS>BOND
   1    1    2 am
   2    1   27 1
   3    1   28 1
   4    2    3 2
   5    2    4 1
   6    4   26 ar
   7    4    5 ar
   8    5    6 ar
   9    5   29 1
  10    6    7 ar
  11    6   30 1
  12    7   25 ar
  13    7    8 1
  14    8    9 1
  15    8   31 1
  16    9   10 1
  17    9   24 2
  18   10   23 ar
  19   10   11 ar
  20   11   12 ar
  21   11   32 1
  22   12   13 ar
  23   12   33 1
  24   13   14 1
  25   13   22 ar
  26   14   15 1
  27   15   21 ar
  28   15   16 ar
  29   16   17 ar
  30   16   34 1
  31   17   18 ar
  32   17   35 1
  33   18   19 1
  34   18   20 ar
  35   20   21 ar
  36   20   36 1
  37   21   37 1
  38   22   23 ar
  39   22   38 1
  40   23   39 1
  41   24   25 1
  42   25   26 ar
  43   26   40 1
