@<TRIPOS>MOLECULE
ZINC000008139740
49    52    1     0     0
SMALL
USER_CHARGES
@<TRIPOS>ATOM
1      O1      0.0647    0.0270    0.2707 O.2      1 ZINC000008139740   -0.5200
2      C2     -0.0144    1.2113    0.0087 C.2      1 ZINC000008139740    0.5600
3      C3      1.1923    2.0638    0.0677 C.ar     1 ZINC000008139740   -0.1000
4      C4      1.1212    3.3403    0.6277 C.ar     1 ZINC000008139740   -0.1100
5      C5      2.2493    4.1336    0.6818 C.ar     1 ZINC000008139740   -0.0900
6      C6      3.4514    3.6684    0.1829 C.ar     1 ZINC000008139740   -0.1200
7      C7      3.5324    2.3991   -0.3766 C.ar     1 ZINC000008139740    0.1400
8      N8      4.7546    1.9319   -0.8809 N.pl3    1 ZINC000008139740   -0.4000
9      C9      4.9637    0.7120   -1.4581 C.2      1 ZINC000008139740   -0.0200
10     C10     6.2617    0.6317   -1.8146 C.2      1 ZINC000008139740   -0.1900
11     C11     6.8777    1.8443   -1.4453 C.2      1 ZINC000008139740   -0.1900
12     C12     5.9321    2.6235   -0.8819 C.2      1 ZINC000008139740   -0.0200
13     C13     2.4070    1.5927   -0.4310 C.ar     1 ZINC000008139740   -0.0900
14     N14    -1.2010    1.7463   -0.3409 N.am     1 ZINC000008139740   -0.6000
15     C15    -1.2886    3.1431   -0.7895 C.3      1 ZINC000008139740    0.0800
16     C16    -1.9620    3.1740   -2.1672 C.3      1 ZINC000008139740    0.1000
17     N17    -3.1914    2.3710   -2.1071 N.am     1 ZINC000008139740   -1.0000
18     S18    -4.6491    3.0280   -2.5377 S.o2     1 ZINC000008139740    2.6900
19     O19    -5.6460    2.2611   -1.8764 O.2      1 ZINC000008139740   -0.9500
20     O20    -4.5180    4.4341   -2.3794 O.2      1 ZINC000008139740   -0.9500
21     C21    -4.8622    2.7393   -4.2628 C.ar     1 ZINC000008139740   -0.6800
22     C22    -4.4004    3.6642   -5.1806 C.ar     1 ZINC000008139740   -0.0200
23     C23    -4.5676    3.4377   -6.5340 C.ar     1 ZINC000008139740   -0.1400
24     C24    -5.1960    2.2861   -6.9696 C.ar     1 ZINC000008139740   -0.0600
25     C25    -5.6570    1.3608   -6.0518 C.ar     1 ZINC000008139740   -0.1400
26     C26    -5.4860    1.5853   -4.6986 C.ar     1 ZINC000008139740   -0.0200
27     C27    -3.1037    0.9742   -1.6585 C.3      1 ZINC000008139740    0.1000
28     C28    -2.4295    0.9416   -0.2862 C.3      1 ZINC000008139740    0.1000
29     H29     0.1836    3.7073    1.0183 H        1 ZINC000008139740    0.1400
30     H30     2.1925    5.1212    1.1152 H        1 ZINC000008139740    0.1400
31     H31     4.3308    4.2938    0.2276 H        1 ZINC000008139740    0.1400
32     H32     4.2184   -0.0560   -1.6033 H        1 ZINC000008139740    0.1700
33     H33     6.7416   -0.2083   -2.2948 H        1 ZINC000008139740    0.1400
34     H34     7.9160    2.1037   -1.5905 H        1 ZINC000008139740    0.1400
35     H35     6.0818    3.6196   -0.4924 H        1 ZINC000008139740    0.1700
36     H36     2.4682    0.6057   -0.8652 H        1 ZINC000008139740    0.1400
37     H37    -1.8820    3.7189   -0.0793 H        1 ZINC000008139740    0.0800
38     H38    -0.2872    3.5675   -0.8622 H        1 ZINC000008139740    0.1100
39     H39    -2.2093    4.2024   -2.4304 H        1 ZINC000008139740    0.1100
40     H40    -1.2873    2.7548   -2.9136 H        1 ZINC000008139740    0.0800
41     H41    -3.9094    4.5639   -4.8402 H        1 ZINC000008139740    0.1400
42     H42    -4.2074    4.1606   -7.2510 H        1 ZINC000008139740    0.1300
43     H43    -5.3272    2.1095   -8.0269 H        1 ZINC000008139740    0.1300
44     H44    -6.1483    0.4613   -6.3922 H        1 ZINC000008139740    0.1300
45     H45    -5.8461    0.8624   -3.9816 H        1 ZINC000008139740    0.1400
46     H46    -4.1051    0.5499   -1.5858 H        1 ZINC000008139740    0.1100
47     H47    -2.5104    0.3984   -2.3687 H        1 ZINC000008139740    0.0800
48     H48    -2.1828   -0.0872   -0.0242 H        1 ZINC000008139740    0.1100
49     H49    -3.1022    1.3610    0.4619 H        1 ZINC000008139740    0.0800
@<TRIPOS>BOND
1     1     2     2
2     2     3     1
3     2     14    am
4     3     13    ar
5     3     4     ar
6     4     5     ar
7     4     29    1
8     5     6     ar
9     5     30    1
10    6     7     ar
11    6     31    1
12    7     8     1
13    7     13    ar
14    8     12    1
15    8     9     1
16    9     10    2
17    9     32    1
18    10    11    1
19    10    33    1
20    11    12    2
21    11    34    1
22    12    35    1
23    13    36    1
24    14    28    1
25    14    15    1
26    15    16    1
27    15    37    1
28    15    38    1
29    16    17    1
30    16    39    1
31    16    40    1
32    17    18    am
33    17    27    1
34    18    19    2
35    18    20    2
36    18    21    1
37    21    26    ar
38    21    22    ar
39    22    23    ar
40    22    41    1
41    23    24    ar
42    23    42    1
43    24    25    ar
44    24    43    1
45    25    26    ar
46    25    44    1
47    26    45    1
48    27    28    1
49    27    46    1
50    27    47    1
51    28    48    1
52    28    49    1
@<TRIPOS>SUBSTRUCTURE
1   ZINC000008139740 1     RESIDUE    1   A     ZIN   1
