@<TRIPOS>MOLECULE
ZINC000000354232
  38   40    0    0    0
SMALL
USER_CHARGES
NO_NAME
@<TRIPOS>ATOM
    1 O1       -0.4857     0.1671    -0.0388 O.2    1 <0>      -0.4600
    2 C2       -0.5164     1.3820    -0.0350 C.2    1 <0>       0.5500
    3 N3        0.6332     2.0852    -0.0490 N.am   1 <0>      -0.6600
    4 C4        1.8558     1.4232     0.0395 C.ar   1 <0>       0.3600
    5 C5        3.0321     2.1584     0.1310 C.ar   1 <0>      -0.2100
    6 C6        4.2397     1.4882     0.2188 C.ar   1 <0>      -0.0500
    7 C7        4.2288     0.1002     0.2121 C.ar   1 <0>      -0.2000
    8 C8        3.0225    -0.5660     0.1186 C.ar   1 <0>       0.1300
    9 N9        1.8864     0.0996     0.0413 N.ar   1 <0>      -0.4800
   10 C10      -1.8163     2.0893    -0.0213 C.ar   1 <0>      -0.1100
   11 C11      -1.8516     3.4846    -0.0228 C.ar   1 <0>      -0.0900
   12 C12      -3.0620     4.1432    -0.0100 C.ar   1 <0>      -0.0600
   13 C13      -4.2527     3.4150     0.0039 C.ar   1 <0>      -0.1100
   14 C14      -5.5525     4.1222     0.0182 C.2    1 <0>       0.5500
   15 O15      -5.5832     5.3371     0.0177 O.2    1 <0>      -0.4600
   16 N16      -6.7022     3.4190     0.0316 N.am   1 <0>      -0.6600
   17 C17      -7.9245     4.0807    -0.0621 C.ar   1 <0>       0.3600
   18 C18      -9.1006     3.3451    -0.1543 C.ar   1 <0>      -0.2100
   19 C19     -10.3080     4.0151    -0.2465 C.ar   1 <0>      -0.0500
   20 C20     -10.2972     5.4030    -0.2431 C.ar   1 <0>      -0.2000
   21 C21      -9.0912     6.0696    -0.1488 C.ar   1 <0>       0.1300
   22 N22      -7.9560     5.4043    -0.0571 N.ar   1 <0>      -0.4800
   23 C23      -4.2173     2.0196     0.0040 C.ar   1 <0>      -0.0900
   24 C24      -3.0070     1.3610    -0.0127 C.ar   1 <0>      -0.0600
   25 H25       0.6094     3.0523    -0.1206 H      1 <0>       0.4200
   26 H26       3.0040     3.2381     0.1332 H      1 <0>       0.1400
   27 H27       5.1696     2.0327     0.2906 H      1 <0>       0.1400
   28 H28       5.1539    -0.4531     0.2788 H      1 <0>       0.1400
   29 H29       3.0090    -1.6459     0.1130 H      1 <0>       0.1600
   30 H30      -0.9303     4.0481    -0.0335 H      1 <0>       0.1400
   31 H31      -3.0893     5.2229    -0.0104 H      1 <0>       0.1500
   32 H32      -6.6785     2.4522     0.1065 H      1 <0>       0.4200
   33 H33      -9.0723     2.2655    -0.1544 H      1 <0>       0.1400
   34 H34     -11.2377     3.4703    -0.3196 H      1 <0>       0.1400
   35 H35     -11.2222     5.9560    -0.3140 H      1 <0>       0.1400
   36 H36      -9.0779     7.1495    -0.1458 H      1 <0>       0.1600
   37 H37      -5.1386     1.4561     0.0145 H      1 <0>       0.1400
   38 H38      -2.9797     0.2813    -0.0126 H      1 <0>       0.1500
@<TRIPOS>BOND
   1    1    2 2
   2    2    3 am
   3    2   10 1
   4    3    4 1
   5    3   25 1
   6    4    9 ar
   7    4    5 ar
   8    5    6 ar
   9    5   26 1
  10    6    7 ar
  11    6   27 1
  12    7    8 ar
  13    7   28 1
  14    8    9 ar
  15    8   29 1
  16   10   24 ar
  17   10   11 ar
  18   11   12 ar
  19   11   30 1
  20   12   13 ar
  21   12   31 1
  22   13   14 1
  23   13   23 ar
  24   14   15 2
  25   14   16 am
  26   16   17 1
  27   16   32 1
  28   17   22 ar
  29   17   18 ar
  30   18   19 ar
  31   18   33 1
  32   19   20 ar
  33   19   34 1
  34   20   21 ar
  35   20   35 1
  36   21   22 ar
  37   21   36 1
  38   23   24 ar
  39   23   37 1
  40   24   38 1
