@<TRIPOS>MOLECULE
ZINC000000001785
32    34    1     0     0
SMALL
USER_CHARGES
@<TRIPOS>ATOM
1      O1      0.0021   -0.0041    0.0020 O.2      1 ZINC000000001785   -0.4300
2      C2     -0.0144    1.2096    0.0087 C.2      1 ZINC000000001785    0.4000
3      C3     -1.3165    1.9899    0.0318 C.3      1 ZINC000000001785   -0.1900
4      C4     -1.1162    3.1798    0.9816 C.3      1 ZINC000000001785    0.1500
5      H5     -0.8935    2.8122    1.9833 H        1 ZINC000000001785    0.0900
6      C6     -2.3727    4.0109    1.0186 C.ar     1 ZINC000000001785   -0.1000
7      C7     -2.6380    4.9066   -0.0008 C.ar     1 ZINC000000001785   -0.0700
8      C8     -3.7892    5.6696    0.0308 C.ar     1 ZINC000000001785   -0.1500
9      C9     -4.6796    5.5363    1.0863 C.ar     1 ZINC000000001785    0.1200
10     O10    -5.8130    6.2855    1.1194 O.3      1 ZINC000000001785   -0.5000
11     C11    -4.4113    4.6366    2.1076 C.ar     1 ZINC000000001785   -0.1400
12     C12    -3.2611    3.8724    2.0690 C.ar     1 ZINC000000001785   -0.0800
13     O13    -0.0293    3.9789    0.5148 O.3      1 ZINC000000001785   -0.3000
14     C14     1.1574    3.3779    0.2631 C.ar     1 ZINC000000001785    0.2100
15     C15     2.3232    4.1226    0.2665 C.ar     1 ZINC000000001785   -0.2000
16     C16     3.5430    3.5127    0.0014 C.ar     1 ZINC000000001785    0.2000
17     O17     4.6796    4.2536    0.0083 O.3      1 ZINC000000001785   -0.4900
18     C18     3.6111    2.1521   -0.2703 C.ar     1 ZINC000000001785   -0.2200
19     C19     2.4576    1.3878   -0.2759 C.ar     1 ZINC000000001785    0.2200
20     O20     2.5196    0.0595   -0.5418 O.3      1 ZINC000000001785   -0.4800
21     C21     1.2230    1.9976    0.0011 C.ar     1 ZINC000000001785   -0.2900
22     H22    -1.5513    2.3499   -0.9699 H        1 ZINC000000001785    0.1200
23     H23    -2.1234    1.3548    0.3975 H        1 ZINC000000001785    0.1200
24     H24    -1.9445    5.0100   -0.8223 H        1 ZINC000000001785    0.1300
25     H25    -3.9956    6.3696   -0.7654 H        1 ZINC000000001785    0.1300
26     H26    -6.5714    5.8707    0.6861 H        1 ZINC000000001785    0.3900
27     H27    -5.1028    4.5313    2.9306 H        1 ZINC000000001785    0.1300
28     H28    -3.0520    3.1716    2.8637 H        1 ZINC000000001785    0.1300
29     H29     2.2849    5.1815    0.4756 H        1 ZINC000000001785    0.1500
30     H30     5.1127    4.3013    0.8716 H        1 ZINC000000001785    0.4000
31     H31     4.5652    1.6903   -0.4771 H        1 ZINC000000001785    0.1500
32     H32     2.6442   -0.4931    0.2419 H        1 ZINC000000001785    0.4000
@<TRIPOS>BOND
1     1     2     2
2     2     21    1
3     2     3     1
4     3     4     1
5     3     22    1
6     3     23    1
7     4     5     1
8     4     6     1
9     4     13    1
10    6     12    ar
11    6     7     ar
12    7     8     ar
13    7     24    1
14    8     9     ar
15    8     25    1
16    9     10    1
17    9     11    ar
18    10    26    1
19    11    12    ar
20    11    27    1
21    12    28    1
22    13    14    1
23    14    21    ar
24    14    15    ar
25    15    16    ar
26    15    29    1
27    16    17    1
28    16    18    ar
29    17    30    1
30    18    19    ar
31    18    31    1
32    19    20    1
33    19    21    ar
34    20    32    1
@<TRIPOS>SUBSTRUCTURE
1   ZINC000000001785 1     RESIDUE    1   A     ZIN   1
