@<TRIPOS>MOLECULE
ZINC000000066714
  27   28    0    0    0
SMALL
USER_CHARGES
NO_NAME
@<TRIPOS>ATOM
    1 O1        0.0021    -0.0041     0.0020 O.2    1 <0>      -0.4900
    2 C2       -0.0144     1.2128     0.0087 C.2    1 <0>       0.6000
    3 N3        1.1435     1.9025     0.0014 N.am   1 <0>      -0.7100
    4 C4        2.4220     1.1873    -0.0147 C.3    1 <0>       0.1700
    5 C5        3.5540     2.1821    -0.0202 C.ar   1 <0>      -0.1700
    6 C6        4.0660     2.6562    -1.2180 C.ar   1 <0>      -0.0500
    7 C7        5.1073     3.5710    -1.1747 C.ar   1 <0>      -0.1700
    8 C8        5.5965     3.9767     0.0523 C.ar   1 <0>       0.1100
    9 N9        5.0848     3.5043     1.1723 N.ar   1 <0>      -0.4800
   10 C10       4.0911     2.6377     1.1692 C.ar   1 <0>       0.1200
   11 C11      -1.2943     1.9287     0.0187 C.2    1 <0>       0.0000
   12 C12      -2.5339     1.3561     0.0269 C.2    1 <0>      -0.1200
   13 C13      -3.4639     2.4074     0.0347 C.2    1 <0>      -0.0900
   14 C14      -2.7602     3.5610     0.0310 C.2    1 <0>       0.0400
   15 N15      -3.3385     4.9236     0.0374 N.pl3  1 <0>       0.0600
   16 O16      -4.5474     5.0721     0.0468 O.2    1 <0>      -0.1100
   17 O17      -2.6055     5.8963     0.0331 O.2    1 <0>      -0.1200
   18 O18      -1.4533     3.2684     0.0272 O.3    1 <0>      -0.1400
   19 H19       1.1303     2.8724     0.0067 H      1 <0>       0.4100
   20 H20       2.4967     0.5567     0.8712 H      1 <0>       0.0900
   21 H21       2.4797     0.5663    -0.9086 H      1 <0>       0.0900
   22 H22       3.6636     2.3209    -2.1625 H      1 <0>       0.1400
   23 H23       5.5308     3.9611    -2.0884 H      1 <0>       0.1400
   24 H24       6.4076     4.6885     0.0946 H      1 <0>       0.1600
   25 H25       3.6979     2.2730     2.1067 H      1 <0>       0.1600
   26 H26      -2.7558     0.2992     0.0270 H      1 <0>       0.1900
   27 H27      -4.5397     2.3122     0.0420 H      1 <0>       0.1900
@<TRIPOS>BOND
   1    1    2 2
   2    2    3 am
   3    2   11 1
   4    3    4 1
   5    3   19 1
   6    4    5 1
   7    4   20 1
   8    4   21 1
   9    5   10 ar
  10    5    6 ar
  11    6    7 ar
  12    6   22 1
  13    7    8 ar
  14    7   23 1
  15    8    9 ar
  16    8   24 1
  17    9   10 ar
  18   10   25 1
  19   11   18 1
  20   11   12 2
  21   12   13 1
  22   12   26 1
  23   13   14 2
  24   13   27 1
  25   14   15 1
  26   14   18 1
  27   15   16 2
  28   15   17 2
