@<TRIPOS>MOLECULE
ZINC000040380596
33    33    1     0     0
SMALL
USER_CHARGES
@<TRIPOS>ATOM
1      C1     -0.0157    1.3058    0.0092 C.2      1 ZINC000040380596   -0.1500
2      C2      0.0021   -0.0041    0.0020 C.2      1 ZINC000040380596   -0.1900
3      C3     -1.2926   -0.7753    0.0102 C.3      1 ZINC000040380596    0.1300
4      N4     -1.3176   -1.6997   -1.1260 N.pl3    1 ZINC000040380596   -0.4600
5      C5     -1.8167   -1.3263   -2.3337 C.2      1 ZINC000040380596    0.1900
6      C6     -1.7942   -2.2371   -3.2988 C.2      1 ZINC000040380596   -0.2500
7      N7     -2.2738   -2.0809   -4.6903 N.pl3    1 ZINC000040380596    0.0800
8      O8     -2.7539   -1.0221   -5.0537 O.2      1 ZINC000040380596   -0.1400
9      O9     -2.1885   -3.0111   -5.4719 O.2      1 ZINC000040380596   -0.1300
10     S10    -1.0685   -3.6799   -2.5692 S.3      1 ZINC000040380596    0.2900
11     C11    -0.8396   -2.9612   -1.0210 C.2      1 ZINC000040380596    0.3600
12     N12    -0.3071   -3.5330    0.0613 N.2      1 ZINC000040380596   -0.5800
13     C13     0.1123   -4.7906    0.0087 C.2      1 ZINC000040380596    0.5000
14     O14     0.0115   -5.4227   -1.0258 O.2      1 ZINC000040380596   -0.5200
15     C15     0.7135   -5.4360    1.2306 C.3      1 ZINC000040380596   -0.0600
16     C16     1.1113   -6.8766    0.9029 C.3      1 ZINC000040380596   -0.1300
17     C17     1.9530   -4.6509    1.6645 C.3      1 ZINC000040380596   -0.1400
18     C18    -0.3132   -5.4359    2.3649 C.3      1 ZINC000040380596   -0.1400
19     H19     0.9122    1.8585    0.0033 H        1 ZINC000040380596    0.1100
20     H20    -0.9582    1.8330    0.0166 H        1 ZINC000040380596    0.1000
21     H21     0.9446   -0.5313   -0.0098 H        1 ZINC000040380596    0.1200
22     H22    -1.3737   -1.3393    0.9394 H        1 ZINC000040380596    0.1200
23     H23    -2.1295   -0.0812   -0.0676 H        1 ZINC000040380596    0.1100
24     H24    -2.2132   -0.3356   -2.5000 H        1 ZINC000040380596    0.2100
25     H25     1.8428   -6.8767    0.0948 H        1 ZINC000040380596    0.0600
26     H26     1.5461   -7.3435    1.7866 H        1 ZINC000040380596    0.0700
27     H27     0.2283   -7.4360    0.5938 H        1 ZINC000040380596    0.0600
28     H28     1.6696   -3.6246    1.8980 H        1 ZINC000040380596    0.0700
29     H29     2.3878   -5.1178    2.5483 H        1 ZINC000040380596    0.0700
30     H30     2.6845   -4.6510    0.8564 H        1 ZINC000040380596    0.0500
31     H31    -1.1962   -5.9952    2.0558 H        1 ZINC000040380596    0.0600
32     H32     0.1217   -5.9028    3.2487 H        1 ZINC000040380596    0.0700
33     H33    -0.5966   -4.4096    2.5984 H        1 ZINC000040380596    0.0700
@<TRIPOS>BOND
1     1     2     2
2     1     19    1
3     1     20    1
4     2     3     1
5     2     21    1
6     3     4     1
7     3     22    1
8     3     23    1
9     4     11    1
10    4     5     1
11    5     6     2
12    5     24    1
13    6     7     1
14    6     10    1
15    7     8     2
16    7     9     2
17    10    11    1
18    11    12    2
19    12    13    1
20    13    14    2
21    13    15    1
22    15    16    1
23    15    17    1
24    15    18    1
25    16    25    1
26    16    26    1
27    16    27    1
28    17    28    1
29    17    29    1
30    17    30    1
31    18    31    1
32    18    32    1
33    18    33    1
@<TRIPOS>SUBSTRUCTURE
1   ZINC000040380596 1     RESIDUE    1   A     ZIN   1
