@<TRIPOS>MOLECULE
ZINC000000537805
60    62    1     0     0
SMALL
USER_CHARGES
@<TRIPOS>ATOM
1      C1     -0.0173    1.4248    0.0099 C.3      1 ZINC000000537805    0.0200
2      O2      0.0021   -0.0041    0.0020 O.3      1 ZINC000000537805   -0.2800
3      C3     -1.1983   -0.6364    0.0101 C.ar     1 ZINC000000537805    0.1900
4      C4     -2.3730    0.1001    0.0195 C.ar     1 ZINC000000537805   -0.2100
5      C5     -3.5944   -0.5443    0.0276 C.ar     1 ZINC000000537805   -0.0400
6      C6     -3.6563   -1.9290    0.0261 C.ar     1 ZINC000000537805   -0.0800
7      Cl7    -5.1989   -2.7252    0.0365 Cl       1 ZINC000000537805   -0.0600
8      C8     -2.4974   -2.6768    0.0159 C.ar     1 ZINC000000537805   -0.0400
9      C9     -1.2560   -2.0368    0.0031 C.ar     1 ZINC000000537805   -0.1600
10     C10    -0.0123   -2.8305   -0.0078 C.2      1 ZINC000000537805    0.5600
11     O11     1.0666   -2.2698   -0.0189 O.2      1 ZINC000000537805   -0.5100
12     N12    -0.0721   -4.1769   -0.0054 N.am     1 ZINC000000537805   -0.7300
13     C13     1.1629   -4.9649   -0.0163 C.3      1 ZINC000000537805    0.1200
14     C14     0.8169   -6.4553   -0.0110 C.3      1 ZINC000000537805   -0.0900
15     C15     2.0872   -7.2659   -0.0221 C.ar     1 ZINC000000537805   -0.0500
16     C16     2.6614   -7.6345   -1.2244 C.ar     1 ZINC000000537805   -0.1400
17     C17     3.8267   -8.3781   -1.2346 C.ar     1 ZINC000000537805   -0.0300
18     C18     4.4180   -8.7527   -0.0426 C.ar     1 ZINC000000537805   -0.6100
19     S19     5.9030   -9.7010   -0.0556 S.o2     1 ZINC000000537805    2.6900
20     O20     5.5697  -11.1343   -0.0563 O.2      1 ZINC000000537805   -1.0300
21     O21     6.6809   -9.3777   -1.2622 O.3      1 ZINC000000537805   -1.0300
22     N22     6.7105   -9.3783    1.1586 N.am     1 ZINC000000537805   -1.2500
23     C23     7.8831   -9.9820    1.3598 C.2      1 ZINC000000537805    0.7500
24     O24     8.2950  -10.7961    0.5534 O.2      1 ZINC000000537805   -0.6400
25     N25     8.6118   -9.6907    2.4555 N.am     1 ZINC000000537805   -0.7300
26     C26     9.8994  -10.3536    2.6764 C.3      1 ZINC000000537805    0.1600
27     C27    10.9975   -9.5981    1.9251 C.3      1 ZINC000000537805   -0.1300
28     C28    12.3423  -10.2904    2.1558 C.3      1 ZINC000000537805   -0.1200
29     C29    12.6614  -10.2991    3.6521 C.3      1 ZINC000000537805   -0.1200
30     C30    11.5633  -11.0545    4.4034 C.3      1 ZINC000000537805   -0.1100
31     C31    10.2186  -10.3622    4.1727 C.3      1 ZINC000000537805   -0.1200
32     C32     3.8446   -8.3830    1.1596 C.ar     1 ZINC000000537805   -0.0200
33     C33     2.6814   -7.6361    1.1699 C.ar     1 ZINC000000537805   -0.1400
34     H34     1.0053    1.8021    0.0021 H        1 ZINC000000537805    0.1100
35     H35    -0.5445    1.7859   -0.8732 H        1 ZINC000000537805    0.0600
36     H36    -0.5275    1.7763    0.9067 H        1 ZINC000000537805    0.0600
37     H37    -2.3328    1.1793    0.0207 H        1 ZINC000000537805    0.1500
38     H38    -4.5065    0.0339    0.0356 H        1 ZINC000000537805    0.1400
39     H39    -2.5498   -3.7556    0.0147 H        1 ZINC000000537805    0.1400
40     H40    -0.9327   -4.6242    0.0034 H        1 ZINC000000537805    0.4000
41     H41     1.7370   -4.7284   -0.9121 H        1 ZINC000000537805    0.0700
42     H42     1.7541   -4.7260    0.8677 H        1 ZINC000000537805    0.0700
43     H43     0.2428   -6.6918    0.8849 H        1 ZINC000000537805    0.0800
44     H44     0.2257   -6.6942   -0.8950 H        1 ZINC000000537805    0.0800
45     H45     2.1994   -7.3418   -2.1556 H        1 ZINC000000537805    0.1300
46     H46     4.2749   -8.6667   -2.1739 H        1 ZINC000000537805    0.1400
47     H47     8.2837   -9.0422    3.0979 H        1 ZINC000000537805    0.3900
48     H48     9.8479  -11.3789    2.3100 H        1 ZINC000000537805    0.0800
49     H49    10.7702   -9.5920    0.8591 H        1 ZINC000000537805    0.0700
50     H50    11.0491   -8.5728    2.2915 H        1 ZINC000000537805    0.0600
51     H51    12.2907  -11.3157    1.7894 H        1 ZINC000000537805    0.0600
52     H52    13.1245   -9.7522    1.6206 H        1 ZINC000000537805    0.0600
53     H53    13.6194  -10.7923    3.8165 H        1 ZINC000000537805    0.0600
54     H54    12.7130   -9.2738    4.0185 H        1 ZINC000000537805    0.0600
55     H55    11.5118  -12.0798    4.0370 H        1 ZINC000000537805    0.0600
56     H56    11.7907  -11.0607    5.4694 H        1 ZINC000000537805    0.0600
57     H57    10.2701   -9.3370    4.5392 H        1 ZINC000000537805    0.0600
58     H58     9.4363  -10.9004    4.7080 H        1 ZINC000000537805    0.0700
59     H59     4.3068   -8.6754    2.0909 H        1 ZINC000000537805    0.1400
60     H60     2.2334   -7.3473    2.1091 H        1 ZINC000000537805    0.1300
@<TRIPOS>BOND
1     1     2     1
2     1     34    1
3     1     35    1
4     1     36    1
5     2     3     1
6     3     9     ar
7     3     4     ar
8     4     5     ar
9     4     37    1
10    5     6     ar
11    5     38    1
12    6     7     1
13    6     8     ar
14    8     9     ar
15    8     39    1
16    9     10    1
17    10    11    2
18    10    12    am
19    12    13    1
20    12    40    1
21    13    14    1
22    13    41    1
23    13    42    1
24    14    15    1
25    14    43    1
26    14    44    1
27    15    33    ar
28    15    16    ar
29    16    17    ar
30    16    45    1
31    17    18    ar
32    17    46    1
33    18    19    1
34    18    32    ar
35    19    20    2
36    19    21    1
37    19    22    2
38    22    23    1
39    23    24    2
40    23    25    am
41    25    26    1
42    25    47    1
43    26    31    1
44    26    27    1
45    26    48    1
46    27    28    1
47    27    49    1
48    27    50    1
49    28    29    1
50    28    51    1
51    28    52    1
52    29    30    1
53    29    53    1
54    29    54    1
55    30    31    1
56    30    55    1
57    30    56    1
58    31    57    1
59    31    58    1
60    32    33    ar
61    32    59    1
62    33    60    1
@<TRIPOS>SUBSTRUCTURE
1   ZINC000000537805 1     RESIDUE    1   A     ZIN   1
