@<TRIPOS>MOLECULE
ZINC000000161940
  22   23    0    0    0
SMALL
USER_CHARGES
NO_NAME
@<TRIPOS>ATOM
    1 N1       -0.0168     1.3842     0.0097 N.pl3  1 <0>      -0.7900
    2 C2        0.0021    -0.0041     0.0020 C.2    1 <0>       0.1300
    3 C3       -1.0777    -0.8661     0.0021 C.2    1 <0>      -0.0700
    4 C4       -2.4809    -0.3889     0.0104 C.ar   1 <0>       0.0400
    5 C5       -2.8215     0.7713     0.7047 C.ar   1 <0>      -0.1300
    6 C6       -4.1295     1.2110     0.7085 C.ar   1 <0>      -0.0600
    7 C7       -5.1021     0.5029     0.0255 C.ar   1 <0>      -0.1800
    8 C8       -6.5288     0.9881     0.0340 C.3    1 <0>       0.5100
    9 F9       -6.7329     1.8551    -1.0448 F      1 <0>      -0.1800
   10 F10      -7.3940    -0.1057    -0.0766 F      1 <0>      -0.1800
   11 F11      -6.7840     1.6653     1.2313 F      1 <0>      -0.1800
   12 C12      -4.7701    -0.6487    -0.6655 C.ar   1 <0>      -0.0600
   13 C13      -3.4645    -1.0952    -0.6808 C.ar   1 <0>      -0.0900
   14 N14      -0.7620    -2.1481    -0.0063 N.2    1 <0>      -0.1700
   15 N15       0.4742    -2.4799    -0.0135 N.2    1 <0>      -0.2300
   16 S16       1.3774    -1.0422    -0.0173 S.3    1 <0>       0.2300
   17 H17       0.8166     1.8806     0.0044 H      1 <0>       0.4200
   18 H18      -0.8633     1.8578     0.0162 H      1 <0>       0.4200
   19 H19      -2.0631     1.3245     1.2388 H      1 <0>       0.1300
   20 H20      -4.3945     2.1095     1.2459 H      1 <0>       0.1400
   21 H21      -5.5336    -1.1974    -1.1968 H      1 <0>       0.1400
   22 H22      -3.2064    -1.9941    -1.2209 H      1 <0>       0.1400
@<TRIPOS>BOND
   1    1    2 1
   2    1   17 1
   3    1   18 1
   4    2   16 1
   5    2    3 2
   6    3    4 1
   7    3   14 1
   8    4   13 ar
   9    4    5 ar
  10    5    6 ar
  11    5   19 1
  12    6    7 ar
  13    6   20 1
  14    7    8 1
  15    7   12 ar
  16    8    9 1
  17    8   10 1
  18    8   11 1
  19   12   13 ar
  20   12   21 1
  21   13   22 1
  22   14   15 2
  23   15   16 1
