@<TRIPOS>MOLECULE
ZINC000034840685
54    57    1     0     0
SMALL
USER_CHARGES
@<TRIPOS>ATOM
1      N1     -0.0518    1.0062   -0.0189 N.4      1 ZINC000034840685   -0.6300
2      H2     -0.0412   -0.0027   -0.0265 H        1 ZINC000034840685    0.4500
3      H3      0.8958    1.3526   -0.0263 H        1 ZINC000034840685    0.4400
4      H4     -0.5397    1.3436   -0.8351 H        1 ZINC000034840685    0.4400
5      C5     -0.7367    1.4796    1.1914 C.3      1 ZINC000034840685   -0.0200
6      C6     -0.7528    3.0095    1.2030 C.3      1 ZINC000034840685    0.0900
7      N7     -1.4358    3.4815    2.4100 N.am     1 ZINC000034840685   -0.7300
8      C8     -1.5706    4.8036    2.6345 C.2      1 ZINC000034840685    0.5800
9      O9     -1.1255    5.6042    1.8356 O.2      1 ZINC000034840685   -0.5200
10     C10    -2.2600    5.2801    3.8527 C.ar     1 ZINC000034840685   -0.1900
11     C11    -2.7700    4.3695    4.7800 C.ar     1 ZINC000034840685    0.1300
12     N12    -3.3852    4.7852    5.8683 N.ar     1 ZINC000034840685   -0.4700
13     C13    -3.5483    6.0653    6.1333 C.ar     1 ZINC000034840685    0.1400
14     C14    -3.0697    7.0449    5.2598 C.ar     1 ZINC000034840685   -0.0300
15     C15    -3.2576    8.4787    5.5652 C.2      1 ZINC000034840685   -0.2500
16     C16    -3.8690    8.9839    6.6558 C.2      1 ZINC000034840685    0.1200
17     N17    -3.9078   10.2991    6.6949 N.2      1 ZINC000034840685   -0.4700
18     C18    -3.3654   10.9357    5.7019 C.2      1 ZINC000034840685    0.3000
19     N19    -3.3148   12.3148    5.5785 N.pl3    1 ZINC000034840685   -0.6100
20     C20    -3.9660   13.1210    6.5076 C.ar     1 ZINC000034840685    0.3900
21     C21    -4.0034   14.4952    6.3179 C.ar     1 ZINC000034840685   -0.2300
22     C22    -4.6583   15.2884    7.2555 C.ar     1 ZINC000034840685    0.1800
23     N23    -4.7193   16.6706    7.1024 N.3      1 ZINC000034840685   -0.4900
24     C24    -3.3721   17.2478    6.9868 C.3      1 ZINC000034840685    0.0200
25     C25    -3.4873   18.7576    6.7607 C.3      1 ZINC000034840685    0.0600
26     O26    -4.2354   19.3392    7.8318 O.3      1 ZINC000034840685   -0.3800
27     C27    -5.5528   18.8007    7.9728 C.3      1 ZINC000034840685    0.0600
28     C28    -5.4585   17.2914    8.2112 C.3      1 ZINC000034840685    0.0100
29     C29    -5.2532   14.6631    8.3533 C.ar     1 ZINC000034840685   -0.2500
30     C30    -5.1732   13.2926    8.4720 C.ar     1 ZINC000034840685    0.1600
31     N31    -4.5489   12.5678    7.5618 N.ar     1 ZINC000034840685   -0.4900
32     S32    -2.7157    9.8294    4.5723 S.3      1 ZINC000034840685    0.1300
33     C33    -2.4055    6.6488    4.0958 C.ar     1 ZINC000034840685   -0.0200
34     H34    -1.7604    1.1054    1.1994 H        1 ZINC000034840685    0.1400
35     H35    -0.2097    1.1151    2.0732 H        1 ZINC000034840685    0.1400
36     H36     0.2709    3.3836    1.1949 H        1 ZINC000034840685    0.0900
37     H37    -1.2798    3.3739    0.3212 H        1 ZINC000034840685    0.0900
38     H38    -1.7911    2.8426    3.0475 H        1 ZINC000034840685    0.4100
39     H39    -2.6591    3.3099    4.6026 H        1 ZINC000034840685    0.1600
40     H40    -4.0590    6.3613    7.0377 H        1 ZINC000034840685    0.1700
41     H41    -4.2911    8.3621    7.4314 H        1 ZINC000034840685    0.1800
42     H42    -2.8256   12.7185    4.8446 H        1 ZINC000034840685    0.4300
43     H43    -3.5311   14.9425    5.4558 H        1 ZINC000034840685    0.1400
44     H44    -2.8151   17.0586    7.9045 H        1 ZINC000034840685    0.0600
45     H45    -2.8520   16.7922    6.1441 H        1 ZINC000034840685    0.0900
46     H46    -2.4908   19.1983    6.7314 H        1 ZINC000034840685    0.1100
47     H47    -3.9974   18.9462    5.8160 H        1 ZINC000034840685    0.0600
48     H48    -6.0501   19.2727    8.8202 H        1 ZINC000034840685    0.1100
49     H49    -6.1229   18.9907    7.0634 H        1 ZINC000034840685    0.0600
50     H50    -6.4615   16.8676    8.2624 H        1 ZINC000034840685    0.1000
51     H51    -4.9349   17.1029    9.1485 H        1 ZINC000034840685    0.0600
52     H52    -5.7695   15.2470    9.1009 H        1 ZINC000034840685    0.1400
53     H53    -5.6312   12.8040    9.3192 H        1 ZINC000034840685    0.1600
54     H54    -2.0227    7.3799    3.3992 H        1 ZINC000034840685    0.1500
@<TRIPOS>BOND
1     1     2     1
2     1     3     1
3     1     4     1
4     1     5     1
5     5     6     1
6     5     34    1
7     5     35    1
8     6     7     1
9     6     36    1
10    6     37    1
11    7     8     am
12    7     38    1
13    8     9     2
14    8     10    1
15    10    33    ar
16    10    11    ar
17    11    12    ar
18    11    39    1
19    12    13    ar
20    13    14    ar
21    13    40    1
22    14    15    1
23    14    33    ar
24    15    32    1
25    15    16    2
26    16    17    1
27    16    41    1
28    17    18    2
29    18    19    1
30    18    32    1
31    19    20    1
32    19    42    1
33    20    31    ar
34    20    21    ar
35    21    22    ar
36    21    43    1
37    22    23    1
38    22    29    ar
39    23    28    1
40    23    24    1
41    24    25    1
42    24    44    1
43    24    45    1
44    25    26    1
45    25    46    1
46    25    47    1
47    26    27    1
48    27    28    1
49    27    48    1
50    27    49    1
51    28    50    1
52    28    51    1
53    29    30    ar
54    29    52    1
55    30    31    ar
56    30    53    1
57    33    54    1
@<TRIPOS>SUBSTRUCTURE
1   ZINC000034840685 1     RESIDUE    1   A     ZIN   1
