@<TRIPOS>MOLECULE
ZINC000082154522
105   108   1     0     0
SMALL
USER_CHARGES
@<TRIPOS>ATOM
1      C1     -0.3768    1.4396    0.0804 C.3      1 ZINC000082154522    0.0900
2      N2     -0.1947   -0.0134    0.0387 N.am     1 ZINC000082154522   -0.6500
3      C3     -0.3279   -0.6753   -1.1277 C.2      1 ZINC000082154522    0.5500
4      O4      0.1444   -0.2124   -2.1443 O.2      1 ZINC000082154522   -0.4900
5      C5     -1.0628   -1.9902   -1.1698 C.3      1 ZINC000082154522    0.1400
6      H6     -1.2483   -2.3397   -0.1541 H        1 ZINC000082154522    0.1000
7      C7     -2.3929   -1.8137   -1.9049 C.3      1 ZINC000082154522   -0.0900
8      C8     -3.1782   -3.0982   -1.8379 C.ar     1 ZINC000082154522   -0.0700
9      C9     -3.0197   -4.0562   -2.8222 C.ar     1 ZINC000082154522   -0.0900
10     C10    -3.7383   -5.2345   -2.7631 C.ar     1 ZINC000082154522   -0.1400
11     C11    -4.6194   -5.4564   -1.7146 C.ar     1 ZINC000082154522    0.1100
12     O12    -5.3272   -6.6149   -1.6540 O.3      1 ZINC000082154522   -0.5000
13     C13    -4.7763   -4.4938   -0.7280 C.ar     1 ZINC000082154522   -0.1400
14     C14    -4.0517   -3.3192   -0.7891 C.ar     1 ZINC000082154522   -0.0900
15     N15    -0.2188   -2.9763   -1.8914 N.am     1 ZINC000082154522   -0.7000
16     C16    -0.5281   -4.2847   -1.6228 C.2      1 ZINC000082154522    0.5100
17     O17    -1.4270   -4.5658   -0.8588 O.2      1 ZINC000082154522   -0.5100
18     C18     0.2751   -5.3654   -2.2998 C.3      1 ZINC000082154522    0.0900
19     N19     1.3554   -5.7955   -1.3862 N.am     1 ZINC000082154522   -0.7200
20     C20     2.4682   -5.0072   -1.3664 C.2      1 ZINC000082154522    0.5200
21     O21     2.5380   -4.0219   -2.0701 O.2      1 ZINC000082154522   -0.5100
22     C22     3.6096   -5.3801   -0.4557 C.3      1 ZINC000082154522    0.1400
23     H23     4.4125   -5.8310   -1.0390 H        1 ZINC000082154522    0.1200
24     C24     3.1218   -6.3720    0.6022 C.3      1 ZINC000082154522   -0.1200
25     C25     4.2905   -6.8356    1.4330 C.ar     1 ZINC000082154522   -0.0600
26     C26     5.0123   -7.9592    1.0354 C.ar     1 ZINC000082154522   -0.1100
27     C27     6.0732   -8.4043    1.7630 C.ar     1 ZINC000082154522   -0.0900
28     C28     6.4487   -7.7230    2.9329 C.ar     1 ZINC000082154522   -0.0500
29     C29     7.5384   -8.1522    3.7099 C.ar     1 ZINC000082154522   -0.0900
30     C30     7.8732   -7.4668    4.8369 C.ar     1 ZINC000082154522   -0.1200
31     C31     7.1510   -6.3430    5.2347 C.ar     1 ZINC000082154522   -0.1100
32     C32     6.0901   -5.8982    4.5076 C.ar     1 ZINC000082154522   -0.1200
33     C33     5.7143   -6.5800    3.3375 C.ar     1 ZINC000082154522   -0.0500
34     C34     4.6287   -6.1472    2.5576 C.ar     1 ZINC000082154522   -0.1100
35     N35     4.1041   -4.1457    0.2054 N.am     1 ZINC000082154522   -0.7100
36     C36     3.1859   -3.5395    1.0234 C.2      1 ZINC000082154522    0.5300
37     O37     2.0762   -4.0080    1.1651 O.2      1 ZINC000082154522   -0.4900
38     C38     3.5879   -2.2776    1.7426 C.3      1 ZINC000082154522    0.1300
39     H39     4.2727   -1.7035    1.1186 H        1 ZINC000082154522    0.0900
40     C40     4.2740   -2.6357    3.0625 C.3      1 ZINC000082154522   -0.1300
41     C41     4.7914   -1.3602    3.7307 C.3      1 ZINC000082154522   -0.1300
42     C42     5.4775   -1.7183    5.0505 C.3      1 ZINC000082154522    0.0900
43     N43     5.9730   -0.4970    5.6903 N.pl3    1 ZINC000082154522   -0.7000
44     C44     6.6261   -0.5700    6.8900 C.cat    1 ZINC000082154522    0.7400
45     N45     6.8116   -1.7515    7.4764 N.pl3    1 ZINC000082154522   -0.7900
46     N46     7.0766    0.5403    7.4717 N.pl3    1 ZINC000082154522   -0.7900
47     H47     7.5397    0.4885    8.3224 H        1 ZINC000082154522    0.4400
48     H48     6.9415    1.4006    7.0446 H        1 ZINC000082154522    0.4400
49     N49     2.3736   -1.4778    2.0123 N.am     1 ZINC000082154522   -0.7300
50     C50     1.4010   -1.5308    1.0577 C.2      1 ZINC000082154522    0.4900
51     O51     1.5547   -2.2003    0.0582 O.2      1 ZINC000082154522   -0.4400
52     C52     0.1380   -0.7445    1.2636 C.3      1 ZINC000082154522    0.1400
53     H53    -0.6774   -1.4248    1.5092 H        1 ZINC000082154522    0.1100
54     C54     0.3368    0.2484    2.4106 C.3      1 ZINC000082154522   -0.1300
55     C55     1.5374    1.1463    2.1056 C.3      1 ZINC000082154522   -0.1800
56     C56     1.8163    2.0508    3.3077 C.3      1 ZINC000082154522    0.0900
57     N57     2.9660    2.9105    3.0156 N.pl3    1 ZINC000082154522   -0.6900
58     C58     3.4030    3.8089    3.9499 C.cat    1 ZINC000082154522    0.7400
59     N59     2.7833    3.9020    5.1253 N.pl3    1 ZINC000082154522   -0.7900
60     N60     4.4483    4.5906    3.6844 N.pl3    1 ZINC000082154522   -0.7900
61     H61     4.8996    4.5227    2.8285 H        1 ZINC000082154522    0.4400
62     H62     4.7582    5.2276    4.3470 H        1 ZINC000082154522    0.4400
63     H63     0.5685    1.9310   -0.1498 H        1 ZINC000082154522    0.0500
64     H64    -1.1270    1.7330   -0.6539 H        1 ZINC000082154522    0.0800
65     H65    -0.7074    1.7359    1.0759 H        1 ZINC000082154522    0.0800
66     H66    -2.9645   -1.0135   -1.4347 H        1 ZINC000082154522    0.0800
67     H67    -2.2010   -1.5592   -2.9472 H        1 ZINC000082154522    0.0800
68     H68    -2.3337   -3.8830   -3.6382 H        1 ZINC000082154522    0.1200
69     H69    -3.6147   -5.9822   -3.5326 H        1 ZINC000082154522    0.1200
70     H70    -4.8818   -7.3230   -1.1689 H        1 ZINC000082154522    0.3900
71     H71    -5.4618   -4.6641    0.0890 H        1 ZINC000082154522    0.1200
72     H72    -4.1732   -2.5697   -0.0211 H        1 ZINC000082154522    0.1100
73     H73     0.4900   -2.7170   -2.5006 H        1 ZINC000082154522    0.4200
74     H74    -0.3710   -6.2133   -2.5268 H        1 ZINC000082154522    0.1100
75     H75     0.7086   -4.9761   -3.2210 H        1 ZINC000082154522    0.1000
76     H76     1.2772   -6.5894   -0.8344 H        1 ZINC000082154522    0.4100
77     H77     2.3888   -5.8856    1.2458 H        1 ZINC000082154522    0.1200
78     H78     2.6619   -7.2297    0.1114 H        1 ZINC000082154522    0.0900
79     H79     4.7256   -8.4849    0.1367 H        1 ZINC000082154522    0.1300
80     H80     6.6232   -9.2769    1.4428 H        1 ZINC000082154522    0.1300
81     H81     8.1069   -9.0215    3.4142 H        1 ZINC000082154522    0.1300
82     H82     8.7108   -7.7990    5.4323 H        1 ZINC000082154522    0.1300
83     H83     7.4375   -5.8175    6.1337 H        1 ZINC000082154522    0.1200
84     H84     5.5397   -5.0261    4.8283 H        1 ZINC000082154522    0.1100
85     H85     4.0630   -5.2752    2.8510 H        1 ZINC000082154522    0.1200
86     H86     4.9996   -3.7983    0.0702 H        1 ZINC000082154522    0.4100
87     H87     3.5588   -3.1270    3.7222 H        1 ZINC000082154522    0.0900
88     H88     5.1093   -3.3080    2.8670 H        1 ZINC000082154522    0.1000
89     H89     5.5066   -0.8689    3.0710 H        1 ZINC000082154522    0.0900
90     H90     3.9561   -0.6879    3.9261 H        1 ZINC000082154522    0.0700
91     H91     4.7623   -2.2096    5.7102 H        1 ZINC000082154522    0.1000
92     H92     6.3129   -2.3906    4.8551 H        1 ZINC000082154522    0.1000
93     H93     5.8379    0.3633    5.2632 H        1 ZINC000082154522    0.4300
94     H94     6.4835   -2.5601    7.0528 H        1 ZINC000082154522    0.4400
95     H95     7.2747   -1.8032    8.3272 H        1 ZINC000082154522    0.4400
96     H96     2.2748   -0.9481    2.8189 H        1 ZINC000082154522    0.4000
97     H97    -0.5576    0.8620    2.5190 H        1 ZINC000082154522    0.1000
98     H98     0.5173   -0.2976    3.3366 H        1 ZINC000082154522    0.0900
99     H99     2.4123    0.5276    1.9057 H        1 ZINC000082154522    0.1000
100    H100    1.3193    1.7602    1.2318 H        1 ZINC000082154522    0.1100
101    H101    0.9414    2.6694    3.5075 H        1 ZINC000082154522    0.1000
102    H102    2.0344    1.4368    4.1815 H        1 ZINC000082154522    0.0900
103    H103    3.4173    2.8427    2.1597 H        1 ZINC000082154522    0.4400
104    H104    2.0221    3.3328    5.3186 H        1 ZINC000082154522    0.4400
105    H105    3.0933    4.5391    5.7878 H        1 ZINC000082154522    0.4400
@<TRIPOS>BOND
1     1     2     1
2     1     63    1
3     1     64    1
4     1     65    1
5     2     52    1
6     2     3     am
7     3     4     2
8     3     5     1
9     5     6     1
10    5     7     1
11    5     15    1
12    7     8     1
13    7     66    1
14    7     67    1
15    8     14    ar
16    8     9     ar
17    9     10    ar
18    9     68    1
19    10    11    ar
20    10    69    1
21    11    12    1
22    11    13    ar
23    12    70    1
24    13    14    ar
25    13    71    1
26    14    72    1
27    15    16    am
28    15    73    1
29    16    17    2
30    16    18    1
31    18    19    1
32    18    74    1
33    18    75    1
34    19    20    am
35    19    76    1
36    20    21    2
37    20    22    1
38    22    23    1
39    22    24    1
40    22    35    1
41    24    25    1
42    24    77    1
43    24    78    1
44    25    34    ar
45    25    26    ar
46    26    27    ar
47    26    79    1
48    27    28    ar
49    27    80    1
50    28    33    ar
51    28    29    ar
52    29    30    ar
53    29    81    1
54    30    31    ar
55    30    82    1
56    31    32    ar
57    31    83    1
58    32    33    ar
59    32    84    1
60    33    34    ar
61    34    85    1
62    35    36    am
63    35    86    1
64    36    37    2
65    36    38    1
66    38    39    1
67    38    40    1
68    38    49    1
69    40    41    1
70    40    87    1
71    40    88    1
72    41    42    1
73    41    89    1
74    41    90    1
75    42    43    1
76    42    91    1
77    42    92    1
78    43    44    ar
79    43    93    1
80    44    45    ar
81    44    46    ar
82    45    94    1
83    45    95    1
84    46    47    1
85    46    48    1
86    49    50    am
87    49    96    1
88    50    51    2
89    50    52    1
90    52    53    1
91    52    54    1
92    54    55    1
93    54    97    1
94    54    98    1
95    55    56    1
96    55    99    1
97    55    100   1
98    56    57    1
99    56    101   1
100   56    102   1
101   57    58    ar
102   57    103   1
103   58    59    ar
104   58    60    ar
105   59    104   1
106   59    105   1
107   60    61    1
108   60    62    1
@<TRIPOS>SUBSTRUCTURE
1   ZINC000082154522 1     RESIDUE    1   A     ZIN   1
