@<TRIPOS>MOLECULE
ZINC000029043612
58    63    1     0     0
SMALL
USER_CHARGES
@<TRIPOS>ATOM
1      O1      0.1542    0.2481    1.0987 O.2      1 ZINC000029043612   -0.5100
2      C2      0.0648    1.3420    0.5769 C.2      1 ZINC000029043612    0.5800
3      N3      1.1440    1.9009   -0.0058 N.am     1 ZINC000029043612   -0.6400
4      C4      2.3868    1.2677    0.0730 C.ar     1 ZINC000029043612    0.1700
5      C5      2.4653   -0.1168    0.0535 C.ar     1 ZINC000029043612   -0.1200
6      C6      3.6957   -0.7414    0.1320 C.ar     1 ZINC000029043612   -0.0900
7      C7      4.8545    0.0081    0.2303 C.ar     1 ZINC000029043612   -0.1300
8      C8      4.7917    1.3873    0.2508 C.ar     1 ZINC000029043612   -0.0800
9      C9      3.5585    2.0283    0.1661 C.ar     1 ZINC000029043612   -0.0500
10     C10     3.4856    3.5094    0.1877 C.2      1 ZINC000029043612    0.1000
11     C11     4.5421    4.3585    0.1815 C.2      1 ZINC000029043612   -0.0200
12     N12     4.0339    5.6514    0.2079 N.pl3    1 ZINC000029043612   -0.4100
13     C13     4.5011    6.9461    0.2178 C.2      1 ZINC000029043612    0.0600
14     C14     5.9813    7.2285    0.1962 C.3      1 ZINC000029043612    0.1100
15     N15     6.5087    7.1825    1.5665 N.3      1 ZINC000029043612   -0.5400
16     C16     5.6471    7.9365    2.4880 C.3      1 ZINC000029043612    0.0200
17     C17     6.1970    7.8144    3.9108 C.3      1 ZINC000029043612    0.0000
18     N18     7.5675    8.3411    3.9531 N.4      1 ZINC000029043612   -0.5100
19     H19     7.5651    9.3080    3.6649 H        1 ZINC000029043612    0.4300
20     H20     7.9255    8.2716    4.8939 H        1 ZINC000029043612    0.4400
21     C21     8.4213    7.5624    3.0463 C.3      1 ZINC000029043612    0.0000
22     C22     7.8899    7.6824    1.6163 C.3      1 ZINC000029043612    0.0200
23     C23     3.6272    7.9365    0.2463 C.2      1 ZINC000029043612   -0.2000
24     S24     2.0316    7.1647    0.2627 S.3      1 ZINC000029043612    0.1900
25     C25     2.6790    5.5173    0.2290 C.2      1 ZINC000029043612    0.1600
26     N26     2.3572    4.2460    0.2111 N.2      1 ZINC000029043612   -0.4400
27     C27    -1.2322    2.0586    0.5758 C.ar     1 ZINC000029043612    0.0500
28     C28    -2.3543    1.4708    1.1850 C.ar     1 ZINC000029043612    0.1300
29     N29    -3.5111    2.0913    1.1935 N.ar     1 ZINC000029043612   -0.4200
30     C30    -3.6250    3.2936    0.6185 C.ar     1 ZINC000029043612    0.1000
31     C31    -4.8512    3.9805    0.6134 C.ar     1 ZINC000029043612   -0.0900
32     C32    -4.9382    5.2026    0.0213 C.ar     1 ZINC000029043612   -0.0800
33     C33    -3.8267    5.7889   -0.5839 C.ar     1 ZINC000029043612   -0.1000
34     C34    -2.6232    5.1560   -0.6002 C.ar     1 ZINC000029043612   -0.0800
35     C35    -2.4925    3.8899    0.0025 C.ar     1 ZINC000029043612    0.0800
36     N36    -1.3238    3.2484    0.0067 N.ar     1 ZINC000029043612   -0.3800
37     H37     1.0578    2.7428   -0.4798 H        1 ZINC000029043612    0.4300
38     H38     1.5643   -0.7074   -0.0227 H        1 ZINC000029043612    0.1500
39     H39     3.7529   -1.8198    0.1169 H        1 ZINC000029043612    0.1300
40     H40     5.8121   -0.4876    0.2915 H        1 ZINC000029043612    0.1300
41     H41     5.6987    1.9685    0.3283 H        1 ZINC000029043612    0.1300
42     H42     5.5857    4.0814    0.1603 H        1 ZINC000029043612    0.1900
43     H43     6.4855    6.4779   -0.4126 H        1 ZINC000029043612    0.1100
44     H44     6.1563    8.2174   -0.2275 H        1 ZINC000029043612    0.0800
45     H45     5.6300    8.9859    2.1935 H        1 ZINC000029043612    0.0700
46     H46     4.6355    7.5321    2.4532 H        1 ZINC000029043612    0.1200
47     H47     5.5674    8.3847    4.5938 H        1 ZINC000029043612    0.1400
48     H48     6.2012    6.7663    4.2100 H        1 ZINC000029043612    0.1400
49     H49     9.4408    7.9458    3.0884 H        1 ZINC000029043612    0.1400
50     H50     8.4141    6.5155    3.3499 H        1 ZINC000029043612    0.1400
51     H51     8.5145    7.0926    0.9455 H        1 ZINC000029043612    0.1300
52     H52     7.9098    8.7275    1.3074 H        1 ZINC000029043612    0.0700
53     H53     3.8404    8.9952    0.2578 H        1 ZINC000029043612    0.2100
54     H54    -2.2640    0.5001    1.6498 H        1 ZINC000029043612    0.1900
55     H55    -5.7212    3.5399    1.0774 H        1 ZINC000029043612    0.1500
56     H56    -5.8826    5.7265    0.0196 H        1 ZINC000029043612    0.1400
57     H57    -3.9233    6.7599   -1.0467 H        1 ZINC000029043612    0.1400
58     H58    -1.7715    5.6221   -1.0732 H        1 ZINC000029043612    0.1400
@<TRIPOS>BOND
1     1     2     2
2     2     3     am
3     2     27    1
4     3     4     1
5     3     37    1
6     4     9     ar
7     4     5     ar
8     5     6     ar
9     5     38    1
10    6     7     ar
11    6     39    1
12    7     8     ar
13    7     40    1
14    8     9     ar
15    8     41    1
16    9     10    1
17    10    26    1
18    10    11    2
19    11    12    1
20    11    42    1
21    12    25    1
22    12    13    1
23    13    14    1
24    13    23    2
25    14    15    1
26    14    43    1
27    14    44    1
28    15    22    1
29    15    16    1
30    16    17    1
31    16    45    1
32    16    46    1
33    17    18    1
34    17    47    1
35    17    48    1
36    18    19    1
37    18    20    1
38    18    21    1
39    21    22    1
40    21    49    1
41    21    50    1
42    22    51    1
43    22    52    1
44    23    24    1
45    23    53    1
46    24    25    1
47    25    26    2
48    27    36    ar
49    27    28    ar
50    28    29    ar
51    28    54    1
52    29    30    ar
53    30    35    ar
54    30    31    ar
55    31    32    ar
56    31    55    1
57    32    33    ar
58    32    56    1
59    33    34    ar
60    33    57    1
61    34    35    ar
62    34    58    1
63    35    36    ar
@<TRIPOS>SUBSTRUCTURE
1   ZINC000029043612 1     RESIDUE    1   A     ZIN   1
