@<TRIPOS>MOLECULE
ZINC000058655676
  55   57    0    0    0
SMALL
USER_CHARGES
NO_NAME
@<TRIPOS>ATOM
    1 C1        0.5491     1.6606    -0.2218 C.3    1 <0>      -0.1400
    2 C2        0.4334     0.1364    -0.1575 C.3    1 <0>       0.0000
    3 C3        1.1746    -0.3797     1.0775 C.3    1 <0>      -0.1400
    4 C4       -1.0196    -0.2539    -0.0708 C.2    1 <0>      -0.2600
    5 C5       -1.7102    -1.0485    -0.9753 C.2    1 <0>       0.3500
    6 N6       -1.3384    -1.6635    -2.1080 N.2    1 <0>      -0.5800
    7 C7       -2.2026    -2.3795    -2.8066 C.2    1 <0>       0.5000
    8 N8       -1.7967    -3.0060    -3.9734 N.pl3  1 <0>      -0.6900
    9 C9       -0.4114    -2.8747    -4.4315 C.3    1 <0>       0.1300
   10 H10      -0.0407    -1.8792    -4.1874 H      1 <0>       0.1100
   11 C11       0.4569    -3.9265    -3.7382 C.3    1 <0>       0.0700
   12 O12       0.0358    -5.2317    -4.1395 O.3    1 <0>      -0.5700
   13 C13      -0.3532    -3.0833    -5.9461 C.3    1 <0>       0.1100
   14 H14      -0.7561    -4.0655    -6.1934 H      1 <0>       0.1200
   15 O15       1.0036    -3.0004    -6.3866 O.3    1 <0>      -0.5400
   16 C16      -1.1823    -2.0020    -6.6421 C.3    1 <0>       0.0400
   17 O17      -1.2240    -2.2638    -8.0463 O.3    1 <0>      -0.5600
   18 C18      -3.5306    -2.5069    -2.3691 C.2    1 <0>      -0.3700
   19 C19      -3.9174    -1.8847    -1.2181 C.2    1 <0>       0.5100
   20 N20      -5.2160    -1.9945    -0.7664 N.pl3  1 <0>      -0.7100
   21 C21      -6.1907    -2.7835    -1.5238 C.3    1 <0>       0.1700
   22 C22      -7.5237    -2.7430    -0.8222 C.ar   1 <0>      -0.1200
   23 C23      -7.8322    -3.6951     0.1314 C.ar   1 <0>      -0.1000
   24 C24      -9.0550    -3.6579     0.7750 C.ar   1 <0>      -0.1200
   25 C25      -9.9692    -2.6683     0.4654 C.ar   1 <0>      -0.1100
   26 C26      -9.6604    -1.7157    -0.4875 C.ar   1 <0>      -0.1200
   27 C27      -8.4359    -1.7503    -1.1280 C.ar   1 <0>      -0.1000
   28 N28      -2.9970    -1.1486    -0.5160 N.pl3  1 <0>      -0.3600
   29 N29      -3.0839    -0.4108     0.6701 N.2    1 <0>      -0.3400
   30 C30      -1.9086     0.1115     0.9318 C.2    1 <0>       0.1100
   31 H31       1.6001     1.9429    -0.2845 H      1 <0>       0.0500
   32 H32       0.0211     2.0283    -1.1016 H      1 <0>       0.0500
   33 H33       0.1087     2.0966     0.6749 H      1 <0>       0.0500
   34 H34       0.8739    -0.2996    -1.0542 H      1 <0>       0.0800
   35 H35       2.2256    -0.0974     1.0148 H      1 <0>       0.0500
   36 H36       0.7342     0.0563     1.9742 H      1 <0>       0.0500
   37 H37       1.0922    -1.4656     1.1233 H      1 <0>       0.0500
   38 H38      -2.4297    -3.5317    -4.4871 H      1 <0>       0.4100
   39 H39       1.4998    -3.7789    -4.0186 H      1 <0>       0.0600
   40 H40       0.3538    -3.8277    -2.6575 H      1 <0>       0.0600
   41 H41       0.5437    -5.9498    -3.7377 H      1 <0>       0.3800
   42 H42       1.4495    -2.1801    -6.1348 H      1 <0>       0.3700
   43 H43      -2.1959    -2.0071    -6.2412 H      1 <0>       0.0500
   44 H44      -0.7276    -1.0269    -6.4676 H      1 <0>       0.0500
   45 H45      -1.7342    -1.6164    -8.5520 H      1 <0>       0.3800
   46 H46      -4.2387    -3.0912    -2.9379 H      1 <0>       0.1500
   47 H47      -5.4838    -1.5494     0.0527 H      1 <0>       0.4200
   48 H48      -6.2947    -2.3676    -2.5259 H      1 <0>       0.0800
   49 H49      -5.8476    -3.8158    -1.5927 H      1 <0>       0.0800
   50 H50      -7.1179    -4.4683     0.3732 H      1 <0>       0.1200
   51 H51      -9.2962    -4.4022     1.5194 H      1 <0>       0.1300
   52 H52     -10.9248    -2.6397     0.9677 H      1 <0>       0.1300
   53 H53     -10.3748    -0.9427    -0.7296 H      1 <0>       0.1300
   54 H54      -8.1946    -1.0060    -1.8725 H      1 <0>       0.1200
   55 H55      -1.6729     0.7312     1.7844 H      1 <0>       0.1900
@<TRIPOS>BOND
   1    1    2 1
   2    1   31 1
   3    1   32 1
   4    1   33 1
   5    2    3 1
   6    2    4 1
   7    2   34 1
   8    3   35 1
   9    3   36 1
  10    3   37 1
  11    4   30 1
  12    4    5 2
  13    5   28 1
  14    5    6 1
  15    6    7 2
  16    7    8 1
  17    7   18 1
  18    8    9 1
  19    8   38 1
  20    9   10 1
  21    9   11 1
  22    9   13 1
  23   11   12 1
  24   11   39 1
  25   11   40 1
  26   12   41 1
  27   13   14 1
  28   13   15 1
  29   13   16 1
  30   15   42 1
  31   16   17 1
  32   16   43 1
  33   16   44 1
  34   17   45 1
  35   18   19 2
  36   18   46 1
  37   19   20 1
  38   19   28 1
  39   20   21 1
  40   20   47 1
  41   21   22 1
  42   21   48 1
  43   21   49 1
  44   22   27 ar
  45   22   23 ar
  46   23   24 ar
  47   23   50 1
  48   24   25 ar
  49   24   51 1
  50   25   26 ar
  51   25   52 1
  52   26   27 ar
  53   26   53 1
  54   27   54 1
  55   28   29 1
  56   29   30 2
  57   30   55 1
