@<TRIPOS>MOLECULE
ZINC000014690026
55    58    1     0     0
SMALL
USER_CHARGES
@<TRIPOS>ATOM
1      O1      0.0021   -0.0041    0.0020 O.co2    1 ZINC000014690026   -0.6900
2      C2     -0.0145    1.2150    0.0087 C.2      1 ZINC000014690026    0.4900
3      O3      1.0330    1.8389    0.0021 O.co2    1 ZINC000014690026   -0.6800
4      C4     -1.3296    1.9507    0.0190 C.3      1 ZINC000014690026    0.0300
5      H5     -1.9385    1.6182   -0.8218 H        1 ZINC000014690026    0.0800
6      C6     -2.0662    1.6605    1.3283 C.3      1 ZINC000014690026   -0.0700
7      C7     -3.4323    2.2954    1.2875 C.ar     1 ZINC000014690026   -0.0600
8      C8     -3.6048    3.5900    1.7397 C.ar     1 ZINC000014690026   -0.1000
9      C9     -4.8564    4.1768    1.7048 C.ar     1 ZINC000014690026   -0.1300
10     C10    -5.9407    3.4671    1.2154 C.ar     1 ZINC000014690026    0.0600
11     O11    -7.1722    4.0429    1.1800 O.3      1 ZINC000014690026   -0.4900
12     C12    -5.7669    2.1635    0.7596 C.ar     1 ZINC000014690026    0.0800
13     O13    -6.8283    1.4628    0.2778 O.3      1 ZINC000014690026   -0.4900
14     C14    -4.5094    1.5833    0.7925 C.ar     1 ZINC000014690026   -0.1300
15     O15    -1.0907    3.3552   -0.0920 O.3      1 ZINC000014690026   -0.3200
16     C16    -1.0450    3.8725   -1.3379 C.2      1 ZINC000014690026    0.5000
17     O17    -1.2041    3.1490   -2.3033 O.2      1 ZINC000014690026   -0.5200
18     C18    -0.8124    5.2553   -1.5212 C.2      1 ZINC000014690026   -0.1600
19     C19    -0.7666    5.7747   -2.7722 C.2      1 ZINC000014690026   -0.0200
20     C20    -0.5258    7.2057   -2.9620 C.ar     1 ZINC000014690026   -0.0300
21     C21    -0.4825    7.7560   -4.2649 C.ar     1 ZINC000014690026   -0.0900
22     C22    -0.6286    7.2114   -5.5627 C.2      1 ZINC000014690026   -0.1800
23     C23    -0.4860    8.2369   -6.4402 C.2      1 ZINC000014690026    0.0700
24     C24    -0.5652    8.1189   -7.9103 C.ar     1 ZINC000014690026   -0.0200
25     C25    -0.8097    6.8775   -8.5004 C.ar     1 ZINC000014690026   -0.0800
26     C26    -0.8837    6.7693   -9.8737 C.ar     1 ZINC000014690026   -0.1300
27     C27    -0.7158    7.8915  -10.6710 C.ar     1 ZINC000014690026    0.0900
28     O28    -0.7896    7.7796  -12.0237 O.3      1 ZINC000014690026   -0.4900
29     C29    -0.4719    9.1338  -10.0885 C.ar     1 ZINC000014690026    0.0800
30     O30    -0.3085   10.2324  -10.8732 O.3      1 ZINC000014690026   -0.4800
31     C31    -0.4012    9.2502   -8.7132 C.ar     1 ZINC000014690026   -0.1100
32     O32    -0.2610    9.3797   -5.7619 O.3      1 ZINC000014690026   -0.1700
33     C33    -0.2515    9.1290   -4.4346 C.ar     1 ZINC000014690026    0.0300
34     C34    -0.0674    9.9380   -3.3151 C.ar     1 ZINC000014690026    0.1300
35     O35     0.1567   11.2679   -3.4719 O.3      1 ZINC000014690026   -0.4900
36     C36    -0.1125    9.3902   -2.0397 C.ar     1 ZINC000014690026   -0.1200
37     C37    -0.3421    8.0431   -1.8572 C.ar     1 ZINC000014690026   -0.1000
38     H38    -2.1699    0.5830    1.4557 H        1 ZINC000014690026    0.1000
39     H39    -1.4990    2.0722    2.1631 H        1 ZINC000014690026    0.0800
40     H40    -2.7602    4.1444    2.1214 H        1 ZINC000014690026    0.1300
41     H41    -4.9887    5.1883    2.0594 H        1 ZINC000014690026    0.1300
42     H42    -7.3621    4.5152    0.3578 H        1 ZINC000014690026    0.3800
43     H43    -6.9687    1.5662   -0.6734 H        1 ZINC000014690026    0.3800
44     H44    -4.3719    0.5720    0.4394 H        1 ZINC000014690026    0.1300
45     H45    -0.6712    5.8974   -0.6644 H        1 ZINC000014690026    0.1400
46     H46    -0.9078    5.1326   -3.6291 H        1 ZINC000014690026    0.1400
47     H47    -0.8177    6.1768   -5.8083 H        1 ZINC000014690026    0.1700
48     H48    -0.9405    6.0020   -7.8819 H        1 ZINC000014690026    0.1400
49     H49    -1.0726    5.8083  -10.3289 H        1 ZINC000014690026    0.1400
50     H50    -1.6801    7.9019  -12.3804 H        1 ZINC000014690026    0.3900
51     H51    -1.1304   10.7044  -11.0652 H        1 ZINC000014690026    0.3900
52     H52    -0.2126   10.2125   -8.2605 H        1 ZINC000014690026    0.1400
53     H53    -0.6482   11.8037   -3.4831 H        1 ZINC000014690026    0.3900
54     H54     0.0317   10.0278   -1.1801 H        1 ZINC000014690026    0.1500
55     H55    -0.3743    7.6325   -0.8588 H        1 ZINC000014690026    0.1500
@<TRIPOS>BOND
1     1     2     ar
2     2     3     ar
3     2     4     1
4     4     5     1
5     4     6     1
6     4     15    1
7     6     7     1
8     6     38    1
9     6     39    1
10    7     14    ar
11    7     8     ar
12    8     9     ar
13    8     40    1
14    9     10    ar
15    9     41    1
16    10    11    1
17    10    12    ar
18    11    42    1
19    12    13    1
20    12    14    ar
21    13    43    1
22    14    44    1
23    15    16    1
24    16    17    2
25    16    18    1
26    18    19    2
27    18    45    1
28    19    20    1
29    19    46    1
30    20    37    ar
31    20    21    ar
32    21    33    ar
33    21    22    1
34    22    23    2
35    22    47    1
36    23    24    1
37    23    32    1
38    24    31    ar
39    24    25    ar
40    25    26    ar
41    25    48    1
42    26    27    ar
43    26    49    1
44    27    28    1
45    27    29    ar
46    28    50    1
47    29    30    1
48    29    31    ar
49    30    51    1
50    31    52    1
51    32    33    1
52    33    34    ar
53    34    35    1
54    34    36    ar
55    35    53    1
56    36    37    ar
57    36    54    1
58    37    55    1
@<TRIPOS>SUBSTRUCTURE
1   ZINC000014690026 1     RESIDUE    1   A     ZIN   1
