@<TRIPOS>MOLECULE
ZINC000014777824
33    34    1     0     0
SMALL
USER_CHARGES
@<TRIPOS>ATOM
1      C1     -0.0173    1.4248    0.0099 C.3      1 ZINC000014777824    0.0300
2      O2      0.0021   -0.0041    0.0020 O.3      1 ZINC000014777824   -0.3300
3      C3     -1.1987   -0.6366    0.0101 C.ar     1 ZINC000014777824    0.1800
4      C4     -2.3742    0.1082    0.0195 C.ar     1 ZINC000014777824   -0.3400
5      C5     -3.5956   -0.5250    0.0273 C.ar     1 ZINC000014777824    0.0100
6      C6     -3.6581   -1.9219    0.0257 C.ar     1 ZINC000014777824   -0.3400
7      C7     -4.9649   -2.6043    0.0335 C.2      1 ZINC000014777824    0.4100
8      O8     -5.0164   -3.8214    0.0321 O.2      1 ZINC000014777824   -0.4500
9      C9     -6.1988   -1.8204    0.0429 C.2      1 ZINC000014777824   -0.1800
10     C10    -7.3967   -2.4460    0.0501 C.2      1 ZINC000014777824   -0.0800
11     C11    -8.6369   -1.6582    0.0595 C.ar     1 ZINC000014777824   -0.0600
12     C12    -8.5805   -0.2591    0.0553 C.ar     1 ZINC000014777824   -0.0900
13     C13    -9.7453    0.4741    0.0637 C.ar     1 ZINC000014777824   -0.1400
14     C14   -10.9764   -0.1720    0.0764 C.ar     1 ZINC000014777824    0.1000
15     O15   -12.1220    0.5558    0.0846 O.3      1 ZINC000014777824   -0.5000
16     C16   -11.0380   -1.5610    0.0802 C.ar     1 ZINC000014777824   -0.1500
17     C17    -9.8793   -2.3038    0.0670 C.ar     1 ZINC000014777824   -0.0900
18     C18    -2.4715   -2.6718    0.0162 C.ar     1 ZINC000014777824    0.3300
19     O19    -2.5229   -4.0275    0.0141 O.3      1 ZINC000014777824   -0.6700
20     C20    -1.2492   -2.0232    0.0031 C.ar     1 ZINC000014777824   -0.2900
21     H21     1.0053    1.8021    0.0021 H        1 ZINC000014777824    0.0900
22     H22    -0.5445    1.7859   -0.8732 H        1 ZINC000014777824    0.0500
23     H23    -0.5275    1.7763    0.9067 H        1 ZINC000014777824    0.0500
24     H24    -2.3275    1.1872    0.0211 H        1 ZINC000014777824    0.1000
25     H25    -4.5056    0.0565    0.0349 H        1 ZINC000014777824    0.1000
26     H26    -6.1531   -0.7414    0.0441 H        1 ZINC000014777824    0.1200
27     H27    -7.4424   -3.5250    0.0488 H        1 ZINC000014777824    0.1300
28     H28    -7.6247    0.2437    0.0458 H        1 ZINC000014777824    0.1300
29     H29    -9.7029    1.5533    0.0608 H        1 ZINC000014777824    0.1300
30     H30   -12.4619    0.7643   -0.7963 H        1 ZINC000014777824    0.3900
31     H31   -11.9968   -2.0580    0.0897 H        1 ZINC000014777824    0.1300
32     H32    -9.9283   -3.3827    0.0699 H        1 ZINC000014777824    0.1300
33     H33    -0.3340   -2.5966   -0.0042 H        1 ZINC000014777824    0.1100
@<TRIPOS>BOND
1     1     2     1
2     1     21    1
3     1     22    1
4     1     23    1
5     2     3     1
6     3     20    ar
7     3     4     ar
8     4     5     ar
9     4     24    1
10    5     6     ar
11    5     25    1
12    6     7     1
13    6     18    ar
14    7     8     2
15    7     9     1
16    9     10    2
17    9     26    1
18    10    11    1
19    10    27    1
20    11    17    ar
21    11    12    ar
22    12    13    ar
23    12    28    1
24    13    14    ar
25    13    29    1
26    14    15    1
27    14    16    ar
28    15    30    1
29    16    17    ar
30    16    31    1
31    17    32    1
32    18    19    1
33    18    20    ar
34    20    33    1
@<TRIPOS>SUBSTRUCTURE
1   ZINC000014777824 1     RESIDUE    1   A     ZIN   1
