@<TRIPOS>MOLECULE
ZINC000000899053
42    43    1     0     0
SMALL
USER_CHARGES
@<TRIPOS>ATOM
1      C1     -0.0084    1.4278    0.0145 C.3      1 ZINC000000899053    0.0200
2      O2      0.0175   -0.0009    0.0110 O.3      1 ZINC000000899053   -0.3000
3      C3      0.6222   -0.6049   -1.0469 C.ar     1 ZINC000000899053    0.1500
4      C4      1.1810    0.1612   -2.0519 C.ar     1 ZINC000000899053   -0.2000
5      C5      1.8035   -0.4613   -3.1400 C.ar     1 ZINC000000899053   -0.0100
6      C6      2.3994    0.3500   -4.2107 C.2      1 ZINC000000899053    0.0000
7      C7      2.9999   -0.2525   -5.2601 C.2      1 ZINC000000899053   -0.2200
8      C8      3.5924    0.5542   -6.3246 C.2      1 ZINC000000899053    0.5400
9      O9      3.4667    1.7646   -6.3126 O.2      1 ZINC000000899053   -0.4700
10     N10     4.2781   -0.0423   -7.3199 N.am     1 ZINC000000899053   -0.5700
11     C11     4.3235   -1.5023   -7.3985 C.3      1 ZINC000000899053    0.0900
12     C12     4.3081   -1.9528   -8.8580 C.3      1 ZINC000000899053   -0.1200
13     C13     5.3646   -1.2137   -9.6363 C.2      1 ZINC000000899053   -0.0900
14     C14     5.6462    0.0526   -9.3343 C.2      1 ZINC000000899053   -0.2000
15     C15     4.9134    0.7098   -8.2402 C.2      1 ZINC000000899053    0.5400
16     O16     4.8881    1.9229   -8.1625 O.2      1 ZINC000000899053   -0.4700
17     C17     1.8575   -1.8584   -3.2056 C.ar     1 ZINC000000899053   -0.2100
18     C18     1.2966   -2.6179   -2.1968 C.ar     1 ZINC000000899053    0.1500
19     O19     1.3486   -3.9754   -2.2598 O.3      1 ZINC000000899053   -0.3000
20     C20     1.9981   -4.5478   -3.3967 C.3      1 ZINC000000899053    0.0200
21     C21     0.6825   -1.9948   -1.1130 C.ar     1 ZINC000000899053    0.0400
22     O22     0.1318   -2.7451   -0.1226 O.3      1 ZINC000000899053   -0.3100
23     C23     0.9789   -3.0946    0.9740 C.3      1 ZINC000000899053    0.0400
24     H24     1.0125    1.8097    0.0036 H        1 ZINC000000899053    0.0600
25     H25    -0.5390    1.7838   -0.8685 H        1 ZINC000000899053    0.0600
26     H26    -0.5183    1.7798    0.9113 H        1 ZINC000000899053    0.1100
27     H27     1.1371    1.2389   -1.9981 H        1 ZINC000000899053    0.1400
28     H28     2.3573    1.4279   -4.1585 H        1 ZINC000000899053    0.1400
29     H29     3.0420   -1.3304   -5.3122 H        1 ZINC000000899053    0.1400
30     H30     5.2342   -1.8616   -6.9192 H        1 ZINC000000899053    0.0900
31     H31     3.4582   -1.9188   -6.8828 H        1 ZINC000000899053    0.1000
32     H32     4.5046   -3.0238   -8.9081 H        1 ZINC000000899053    0.1100
33     H33     3.3291   -1.7457   -9.2902 H        1 ZINC000000899053    0.1000
34     H34     5.8929   -1.7094  -10.4372 H        1 ZINC000000899053    0.1400
35     H35     6.4011    0.5911   -9.8880 H        1 ZINC000000899053    0.1500
36     H36     2.3368   -2.3421   -4.0439 H        1 ZINC000000899053    0.1400
37     H37     1.9694   -5.6348   -3.3225 H        1 ZINC000000899053    0.1100
38     H38     1.4855   -4.2319   -4.3052 H        1 ZINC000000899053    0.0600
39     H39     3.0350   -4.2131   -3.4294 H        1 ZINC000000899053    0.0600
40     H40     0.4165   -3.6921    1.6914 H        1 ZINC000000899053    0.1000
41     H41     1.8282   -3.6711    0.6076 H        1 ZINC000000899053    0.0500
42     H42     1.3380   -2.1870    1.4593 H        1 ZINC000000899053    0.0500
@<TRIPOS>BOND
1     1     2     1
2     1     24    1
3     1     25    1
4     1     26    1
5     2     3     1
6     3     21    ar
7     3     4     ar
8     4     5     ar
9     4     27    1
10    5     6     1
11    5     17    ar
12    6     7     2
13    6     28    1
14    7     8     1
15    7     29    1
16    8     9     2
17    8     10    am
18    10    15    am
19    10    11    1
20    11    12    1
21    11    30    1
22    11    31    1
23    12    13    1
24    12    32    1
25    12    33    1
26    13    14    2
27    13    34    1
28    14    15    1
29    14    35    1
30    15    16    2
31    17    18    ar
32    17    36    1
33    18    19    1
34    18    21    ar
35    19    20    1
36    20    37    1
37    20    38    1
38    20    39    1
39    21    22    1
40    22    23    1
41    23    40    1
42    23    41    1
43    23    42    1
@<TRIPOS>SUBSTRUCTURE
1   ZINC000000899053 1     RESIDUE    1   A     ZIN   1
