@<TRIPOS>MOLECULE
ZINC000019795882
67    72    1     0     0
SMALL
USER_CHARGES
@<TRIPOS>ATOM
1      C1     -0.1238    1.1518    0.2430 C.3      1 ZINC000019795882   -0.1500
2      C2     -0.0231   -0.3483    0.1398 C.2      1 ZINC000019795882    0.4600
3      O3      1.0614   -0.8803    0.1093 O.2      1 ZINC000019795882   -0.5000
4      O4     -1.1380   -1.0935    0.0817 O.3      1 ZINC000019795882   -0.3500
5      C5     -0.9656   -2.5285   -0.0166 C.3      1 ZINC000019795882    0.0900
6      H6     -0.0172   -2.7661    0.5054 H        1 ZINC000019795882    0.1000
7      C7     -0.7731   -2.9166   -1.4819 C.3      1 ZINC000019795882   -0.1300
8      C8     -0.5246   -4.4105   -1.5951 C.3      1 ZINC000019795882   -0.0300
9      C9     -1.5158   -5.0733   -2.5553 C.3      1 ZINC000019795882   -0.1600
10     C10     0.9177   -4.7538   -2.0417 C.3      1 ZINC000019795882   -0.0100
11     H11     1.6440   -4.1286   -1.5330 H        1 ZINC000019795882    0.1000
12     C12     1.0501   -4.6485   -3.5392 C.2      1 ZINC000019795882   -0.1700
13     C13     0.3562   -5.3462   -4.4563 C.2      1 ZINC000019795882   -0.0400
14     O14     0.7644   -4.9650   -5.6777 O.3      1 ZINC000019795882   -0.1700
15     C15     1.7172   -4.0260   -5.5585 C.2      1 ZINC000019795882   -0.0400
16     C16     1.9231   -3.7931   -4.2498 C.2      1 ZINC000019795882   -0.2100
17     C17     1.0329   -6.2379   -1.5816 C.3      1 ZINC000019795882   -0.1200
18     C18     0.3127   -6.2362   -0.2020 C.3      1 ZINC000019795882    0.0100
19     H19     0.0620   -7.1868    0.2541 H        1 ZINC000019795882    0.1500
20     O20     0.6215   -5.0900    0.6048 O.3      1 ZINC000019795882   -0.3200
21     C21    -0.5814   -5.0129   -0.1800 C.3      1 ZINC000019795882    0.0100
22     C22    -1.8647   -4.7825    0.6173 C.3      1 ZINC000019795882   -0.0500
23     C23    -1.6060   -5.3063    2.0525 C.3      1 ZINC000019795882   -0.1400
24     C24    -2.9946   -5.5698    0.0265 C.2      1 ZINC000019795882    0.3300
25     O25    -3.0004   -6.7930    0.1273 O.2      1 ZINC000019795882   -0.3900
26     C26    -4.1282   -4.8942   -0.6905 C.2      1 ZINC000019795882    0.3400
27     O27    -5.0687   -5.5507   -1.0853 O.2      1 ZINC000019795882   -0.3800
28     C28    -3.9926   -3.4032   -0.9039 C.3      1 ZINC000019795882   -0.1200
29     C29    -5.2457   -2.7622   -1.4688 C.3      1 ZINC000019795882   -0.0900
30     C30    -5.4272   -3.2196   -2.9320 C.3      1 ZINC000019795882   -0.1500
31     C31    -6.5171   -3.1208   -0.6996 C.3      1 ZINC000019795882   -0.1500
32     C32    -5.0889   -1.2533   -1.4811 C.2      1 ZINC000019795882    0.3900
33     O33    -5.6103   -0.5920   -2.3626 O.2      1 ZINC000019795882   -0.4500
34     C34    -4.3143   -0.6022   -0.4284 C.2      1 ZINC000019795882   -0.2300
35     C35    -3.5932   -1.3087    0.4290 C.2      1 ZINC000019795882   -0.0200
36     C36    -3.4762   -2.7983    0.3851 C.3      1 ZINC000019795882   -0.0200
37     C37    -4.3441   -3.3089    1.5459 C.3      1 ZINC000019795882   -0.1700
38     C38    -2.0748   -3.2745    0.6953 C.3      1 ZINC000019795882   -0.0600
39     H39    -1.9370   -3.0269    1.7715 H        1 ZINC000019795882    0.1000
40     H40     0.8772    1.5816    0.2786 H        1 ZINC000019795882    0.1000
41     H41    -0.6556    1.5408   -0.6253 H        1 ZINC000019795882    0.1000
42     H42    -0.6660    1.4179    1.1504 H        1 ZINC000019795882    0.1000
43     H43    -1.6465   -2.6315   -2.0616 H        1 ZINC000019795882    0.0800
44     H44     0.0922   -2.3726   -1.8791 H        1 ZINC000019795882    0.0900
45     H45    -1.4218   -4.6220   -3.5431 H        1 ZINC000019795882    0.0900
46     H46    -1.3002   -6.1397   -2.6211 H        1 ZINC000019795882    0.0700
47     H47    -2.5310   -4.9299   -2.1855 H        1 ZINC000019795882    0.0500
48     H48    -0.4005   -6.0876   -4.2462 H        1 ZINC000019795882    0.2000
49     H49     2.2283   -3.5376   -6.3750 H        1 ZINC000019795882    0.2000
50     H50     2.6259   -3.0925   -3.8235 H        1 ZINC000019795882    0.1500
51     H51     0.5377   -6.9075   -2.2769 H        1 ZINC000019795882    0.0900
52     H52     2.0799   -6.5132   -1.4568 H        1 ZINC000019795882    0.0900
53     H53    -0.7740   -4.7584    2.4948 H        1 ZINC000019795882    0.0800
54     H54    -2.5000   -5.1611    2.6590 H        1 ZINC000019795882    0.0700
55     H55    -1.3621   -6.3680    2.0134 H        1 ZINC000019795882    0.0800
56     H56    -3.1941   -3.2595   -1.6680 H        1 ZINC000019795882    0.1200
57     H57    -5.5226   -4.3050   -2.9642 H        1 ZINC000019795882    0.0700
58     H58    -6.3262   -2.7634   -3.3465 H        1 ZINC000019795882    0.0800
59     H59    -4.5609   -2.9135   -3.5185 H        1 ZINC000019795882    0.0600
60     H60    -6.4786   -2.6745    0.2941 H        1 ZINC000019795882    0.0700
61     H61    -7.3859   -2.7392   -1.2359 H        1 ZINC000019795882    0.0700
62     H62    -6.5933   -4.2043   -0.6086 H        1 ZINC000019795882    0.0800
63     H63    -4.3312    0.4787   -0.3429 H        1 ZINC000019795882    0.1400
64     H64    -3.0834   -0.7771    1.2212 H        1 ZINC000019795882    0.1400
65     H65    -5.3432   -2.8802    1.4685 H        1 ZINC000019795882    0.0800
66     H66    -4.4105   -4.3959    1.4991 H        1 ZINC000019795882    0.0600
67     H67    -3.8941   -3.0129    2.4935 H        1 ZINC000019795882    0.0800
@<TRIPOS>BOND
1     1     2     1
2     1     40    1
3     1     41    1
4     1     42    1
5     2     3     2
6     2     4     1
7     4     5     1
8     5     6     1
9     5     38    1
10    5     7     1
11    7     8     1
12    7     43    1
13    7     44    1
14    8     21    1
15    8     9     1
16    8     10    1
17    9     45    1
18    9     46    1
19    9     47    1
20    10    11    1
21    10    12    1
22    10    17    1
23    12    16    1
24    12    13    2
25    13    14    1
26    13    48    1
27    14    15    1
28    15    16    2
29    15    49    1
30    16    50    1
31    17    18    1
32    17    51    1
33    17    52    1
34    18    19    1
35    18    21    1
36    18    20    1
37    20    21    1
38    21    22    1
39    22    38    1
40    22    23    1
41    22    24    1
42    23    53    1
43    23    54    1
44    23    55    1
45    24    25    2
46    24    26    1
47    26    27    2
48    26    28    1
49    28    36    1
50    28    29    1
51    28    56    1
52    29    30    1
53    29    31    1
54    29    32    1
55    30    57    1
56    30    58    1
57    30    59    1
58    31    60    1
59    31    61    1
60    31    62    1
61    32    33    2
62    32    34    1
63    34    35    2
64    34    63    1
65    35    36    1
66    35    64    1
67    36    37    1
68    36    38    1
69    37    65    1
70    37    66    1
71    37    67    1
72    38    39    1
@<TRIPOS>SUBSTRUCTURE
1   ZINC000019795882 1     RESIDUE    1   A     ZIN   1
