@<TRIPOS>MOLECULE
ZINC000059086693
  48   51    0    0    0
SMALL
USER_CHARGES
NO_NAME
@<TRIPOS>ATOM
    1 C1       -0.0184     1.5028     0.0103 C.3    1 <0>      -0.0900
    2 C2        0.0021    -0.0041     0.0020 C.2    1 <0>       0.1100
    3 C3        0.0075    -0.7819    -1.1156 C.2    1 <0>      -0.1100
    4 C4       -0.0055    -0.3152    -2.5149 C.2    1 <0>      -0.1900
    5 C5        1.0841    -0.0451    -3.3006 C.2    1 <0>       0.1800
    6 N6        2.4187    -0.1568    -2.9374 N.pl3  1 <0>      -0.6800
    7 C7        3.4705     0.1729    -3.9024 C.3    1 <0>       0.1200
    8 C8        4.8407    -0.0339    -3.2538 C.3    1 <0>      -0.0900
    9 C9        5.9227     0.3053    -4.2464 C.ar   1 <0>      -0.1000
   10 C10       6.4226    -0.6738    -5.0846 C.ar   1 <0>      -0.0800
   11 C11       7.4149    -0.3639    -5.9952 C.ar   1 <0>      -0.1500
   12 C12       7.9079     0.9279    -6.0683 C.ar   1 <0>       0.1000
   13 F13       8.8775     1.2321    -6.9585 F      1 <0>      -0.1400
   14 C14       7.4060     1.9078    -5.2286 C.ar   1 <0>      -0.1500
   15 C15       6.4104     1.5966    -4.3220 C.ar   1 <0>      -0.0800
   16 C16       0.5575     0.3878    -4.6099 C.2    1 <0>       0.5600
   17 O17       1.2261     0.7132    -5.5706 O.2    1 <0>      -0.4600
   18 N18      -0.7857     0.3617    -4.5614 N.am   1 <0>      -0.5900
   19 C19      -1.6724     0.7245    -5.6697 C.3    1 <0>       0.0800
   20 C20      -1.1970    -0.0522    -3.3502 C.2    1 <0>       0.5700
   21 O21      -2.3525    -0.1802    -2.9985 O.2    1 <0>      -0.4600
   22 C22       0.0296    -2.1806    -0.6540 C.ar   1 <0>      -0.0800
   23 C23       0.0433    -3.4129    -1.3039 C.ar   1 <0>      -0.0700
   24 C24       0.0630    -4.5745    -0.5633 C.ar   1 <0>      -0.1400
   25 C25       0.0691    -4.5211     0.8230 C.ar   1 <0>      -0.1000
   26 C26       0.0556    -3.3094     1.4793 C.ar   1 <0>      -0.1300
   27 C27       0.0357    -2.1253     0.7500 C.ar   1 <0>       0.0900
   28 N28       0.0238    -0.7944     1.1116 N.pl3  1 <0>      -0.5900
   29 H29       1.0042     1.8801     0.0026 H      1 <0>       0.0800
   30 H30      -0.5455     1.8639    -0.8728 H      1 <0>       0.0800
   31 H31      -0.5286     1.8543     0.9071 H      1 <0>       0.0700
   32 H32       2.6552    -0.4533    -2.0446 H      1 <0>       0.4200
   33 H33       3.3797    -0.4749    -4.7743 H      1 <0>       0.0800
   34 H34       3.3677     1.2134    -4.2105 H      1 <0>       0.0800
   35 H35       4.9314     0.6139    -2.3819 H      1 <0>       0.0800
   36 H36       4.9435    -1.0744    -2.9456 H      1 <0>       0.0800
   37 H37       6.0379    -1.6813    -5.0274 H      1 <0>       0.1300
   38 H38       7.8058    -1.1291    -6.6495 H      1 <0>       0.1400
   39 H39       7.7901     2.9157    -5.2845 H      1 <0>       0.1400
   40 H40       6.0186     2.3609    -3.6672 H      1 <0>       0.1300
   41 H41      -1.0742     1.0169    -6.5327 H      1 <0>       0.0900
   42 H42      -2.2947    -0.1310    -5.9321 H      1 <0>       0.0800
   43 H43      -2.3078     1.5574    -5.3690 H      1 <0>       0.0800
   44 H44       0.0383    -3.4574    -2.3830 H      1 <0>       0.1200
   45 H45       0.0733    -5.5312    -1.0643 H      1 <0>       0.1200
   46 H46       0.0842    -5.4381     1.3934 H      1 <0>       0.1300
   47 H47       0.0602    -3.2793     2.5589 H      1 <0>       0.1200
   48 H48       0.0282    -0.4680     2.0250 H      1 <0>       0.4200
@<TRIPOS>BOND
   1    1    2 1
   2    1   29 1
   3    1   30 1
   4    1   31 1
   5    2   28 1
   6    2    3 2
   7    3    4 1
   8    3   22 1
   9    4   20 1
  10    4    5 2
  11    5    6 1
  12    5   16 1
  13    6    7 1
  14    6   32 1
  15    7    8 1
  16    7   33 1
  17    7   34 1
  18    8    9 1
  19    8   35 1
  20    8   36 1
  21    9   15 ar
  22    9   10 ar
  23   10   11 ar
  24   10   37 1
  25   11   12 ar
  26   11   38 1
  27   12   13 1
  28   12   14 ar
  29   14   15 ar
  30   14   39 1
  31   15   40 1
  32   16   17 2
  33   16   18 am
  34   18   19 1
  35   18   20 am
  36   19   41 1
  37   19   42 1
  38   19   43 1
  39   20   21 2
  40   22   27 ar
  41   22   23 ar
  42   23   24 ar
  43   23   44 1
  44   24   25 ar
  45   24   45 1
  46   25   26 ar
  47   25   46 1
  48   26   27 ar
  49   26   47 1
  50   27   28 1
  51   28   48 1
