@<TRIPOS>MOLECULE
ZINC000103242141
  61   64    0    0    0
SMALL
NO_CHARGES
@<TRIPOS>ATOM
   1 N1             0.7397     1.7731    -0.2934 N.4     
   2 H2             0.9360     0.7868    -0.3757 H       
   3 H3             1.6072     2.2848    -0.2326 H       
   4 H4             0.2231     2.0819    -1.1033 H       
   5 C5            -0.0571     2.0145     0.9169 C.3     
   6 C6            -0.3547     3.5101     1.0417 C.3     
   7 C7            -1.1845     3.7615     2.3023 C.3     
   8 C8            -1.4822     5.2571     2.4270 C.3     
   9 N9            -2.1491     5.5183     3.7096 N.3     
  10 C10           -2.2105     6.9596     3.9871 C.3     
  11 C11           -2.5327     7.1809     5.4663 C.3     
  12 H12           -3.5287     6.7959     5.6854 H       
  13 C13           -2.4783     8.6754     5.7856 C.3     
  14 C14           -2.5674     8.8820     7.2761 C.ar    
  15 C15           -2.8807    10.1441     7.7547 C.ar    
  16 C16           -2.9681    10.3719     9.1140 C.ar    
  17 C17           -2.7416     9.3361    10.0007 C.ar    
  18 C18           -2.4308     8.0779     9.5244 C.ar    
  19 C19           -2.3451     7.8469     8.1599 C.ar    
  20 C20           -2.0112     6.4575     7.6845 C.3     
  21 N21           -1.5398     6.4834     6.2977 N.4     
  22 H22           -1.4191     5.5387     5.9644 H       
  23 H23           -0.6592     6.9736     6.2495 H       
  24 C24           -3.4901     4.9193     3.7372 C.3     
  25 H25           -4.0533     5.3372     4.5717 H       
  26 C26           -4.2125     5.2411     2.4307 C.3     
  27 C27           -5.5175     4.4377     2.3869 C.3     
  28 C28           -5.1682     2.9614     2.2066 C.3     
  29 C29           -4.1434     2.5333     3.2221 C.ar    
  30 C30           -3.9859     1.1707     3.4559 C.ar    
  31 C31           -3.0441     0.7561     4.3822 C.ar    
  32 C32           -2.2926     1.7102     5.0417 C.ar    
  33 N33           -2.4706     2.9902     4.7966 N.ar    
  34 C34           -3.3649     3.4284     3.9191 C.ar    
  35 H35           -0.9942     1.4618     0.8513 H       
  36 H36            0.5010     1.6809     1.7918 H       
  37 H37            0.5825     4.0628     1.1073 H       
  38 H38           -0.9127     3.8437     0.1668 H       
  39 H39           -2.1217     3.2088     2.2366 H       
  40 H40           -0.6265     3.4279     3.1771 H       
  41 H41           -0.5488     5.8183     2.3819 H       
  42 H42           -2.1327     5.5675     1.6094 H       
  43 H43           -1.2488     7.4160     3.7525 H       
  44 H44           -2.9881     7.4149     3.3737 H       
  45 H45           -1.5401     9.0907     5.4175 H       
  46 H46           -3.3128     9.1806     5.2991 H       
  47 H47           -3.0569    10.9534     7.0616 H       
  48 H48           -3.2124    11.3570     9.4833 H       
  49 H49           -2.8074     9.5106    11.0645 H       
  50 H50           -2.2536     7.2695    10.2183 H       
  51 H51           -1.2323     6.0374     8.3208 H       
  52 H52           -2.9019     5.8324     7.7475 H       
  53 H53           -4.4369     6.3069     2.3891 H       
  54 H54           -3.5826     4.9631     1.5857 H       
  55 H55           -6.0643     4.5743     3.3198 H       
  56 H56           -6.1286     4.7753     1.5498 H       
  57 H57           -6.0695     2.3610     2.3301 H       
  58 H58           -4.7681     2.8064     1.2046 H       
  59 H59           -4.5881     0.4490     2.9242 H       
  60 H60           -2.8996    -0.2945     4.5862 H       
  61 H61           -1.5524     1.4019     5.7652 H       
@<TRIPOS>BOND
   1    1    2 1
   2    1    3 1
   3    1    4 1
   4    1    5 1
   5    5    6 1
   6    5   35 1
   7    5   36 1
   8    6    7 1
   9    6   37 1
  10    6   38 1
  11    7    8 1
  12    7   39 1
  13    7   40 1
  14    8    9 1
  15    8   41 1
  16    8   42 1
  17    9   10 1
  18    9   24 1
  19   10   11 1
  20   10   43 1
  21   10   44 1
  22   11   12 1
  23   11   21 1
  24   11   13 1
  25   13   14 1
  26   13   45 1
  27   13   46 1
  28   14   19 ar
  29   14   15 ar
  30   15   16 ar
  31   15   47 1
  32   16   17 ar
  33   16   48 1
  34   17   18 ar
  35   17   49 1
  36   18   19 ar
  37   18   50 1
  38   19   20 1
  39   20   21 1
  40   20   51 1
  41   20   52 1
  42   21   22 1
  43   21   23 1
  44   24   25 1
  45   24   34 1
  46   24   26 1
  47   26   27 1
  48   26   53 1
  49   26   54 1
  50   27   28 1
  51   27   55 1
  52   27   56 1
  53   28   29 1
  54   28   57 1
  55   28   58 1
  56   29   34 ar
  57   29   30 ar
  58   30   31 ar
  59   30   59 1
  60   31   32 ar
  61   31   60 1
  62   32   33 ar
  63   32   61 1
  64   33   34 ar
