@<TRIPOS>MOLECULE
ZINC000033359231
  54   57    0    0    0
SMALL
USER_CHARGES
NO_NAME
@<TRIPOS>ATOM
    1 N1        0.4636    -0.2060     0.2261 N.4    1 <0>      -0.6400
    2 H2        0.5543    -1.1934     0.4133 H      1 <0>       0.4400
    3 H3        1.3785     0.2193     0.2135 H      1 <0>       0.4400
    4 H4        0.0185    -0.0731    -0.6696 H      1 <0>       0.4400
    5 C5       -0.3524     0.4185     1.2759 C.3    1 <0>      -0.0100
    6 C6        0.3225     0.2168     2.6341 C.3    1 <0>      -0.1500
    7 C7       -0.4612     0.9712     3.7100 C.3    1 <0>      -0.1100
    8 C8        0.2800     0.8718     5.0448 C.3    1 <0>       0.0500
    9 N9       -0.5323     1.4871     6.1029 N.3    1 <0>      -0.5100
   10 C10      -0.0542     1.0874     7.4332 C.3    1 <0>       0.1200
   11 C11      -1.1167     1.3856     8.4594 C.2    1 <0>       0.2900
   12 N12      -1.2699     2.5279     9.0633 N.2    1 <0>      -0.4700
   13 C13      -2.3187     2.4531     9.9224 C.ar   1 <0>       0.0600
   14 C14      -2.9104     3.3629    10.8021 C.ar   1 <0>      -0.0600
   15 C15      -3.9846     2.9812    11.5555 C.ar   1 <0>      -0.1300
   16 C16      -4.4971     1.6958    11.4571 C.ar   1 <0>      -0.1000
   17 C17      -3.9289     0.7809    10.5959 C.ar   1 <0>      -0.1100
   18 C18      -2.8374     1.1507     9.8224 C.ar   1 <0>       0.0500
   19 N19      -2.0591     0.5016     8.8850 N.pl3  1 <0>      -0.5900
   20 C20      -0.5521     2.9497     5.9682 C.3    1 <0>       0.1500
   21 H21      -0.6526     3.2123     4.9151 H      1 <0>       0.0900
   22 C22       0.7567     3.5229     6.5075 C.3    1 <0>      -0.1600
   23 C23       0.6344     5.0505     6.5557 C.3    1 <0>      -0.1100
   24 C24      -0.3571     5.4195     7.6578 C.3    1 <0>      -0.0800
   25 C25      -1.6362     4.6426     7.4993 C.ar   1 <0>      -0.0800
   26 C26      -2.7680     5.1063     8.1625 C.ar   1 <0>      -0.0800
   27 C27      -3.9533     4.4023     8.0342 C.ar   1 <0>      -0.1600
   28 C28      -3.9706     3.2628     7.2526 C.ar   1 <0>       0.0900
   29 N29      -2.8813     2.8553     6.6381 N.ar   1 <0>      -0.4600
   30 C30      -1.7270     3.5035     6.7328 C.ar   1 <0>       0.1400
   31 H31      -0.4504     1.4851     1.0736 H      1 <0>       0.1300
   32 H32      -1.3407    -0.0410     1.2894 H      1 <0>       0.1300
   33 H33       0.3414    -0.8458     2.8762 H      1 <0>       0.0900
   34 H34       1.3427     0.5983     2.5931 H      1 <0>       0.0900
   35 H35      -0.5553     2.0187     3.4237 H      1 <0>       0.0700
   36 H36      -1.4535     0.5319     3.8119 H      1 <0>       0.0900
   37 H37       0.4563    -0.1766     5.2853 H      1 <0>       0.0800
   38 H38       1.2344     1.3930     4.9701 H      1 <0>       0.0400
   39 H39       0.1633     0.0193     7.4353 H      1 <0>       0.0900
   40 H40       0.8515     1.6431     7.6759 H      1 <0>       0.0900
   41 H41      -2.5193     4.3660    10.8868 H      1 <0>       0.1200
   42 H42      -4.4391     3.6873    12.2346 H      1 <0>       0.1300
   43 H43      -5.3466     1.4095    12.0594 H      1 <0>       0.1300
   44 H44      -4.3312    -0.2188    10.5237 H      1 <0>       0.1200
   45 H45      -2.1640    -0.4152     8.5860 H      1 <0>       0.4200
   46 H46       0.9392     3.1382     7.5109 H      1 <0>       0.0900
   47 H47       1.5786     3.2419     5.8490 H      1 <0>       0.0700
   48 H48       1.6074     5.4900     6.7750 H      1 <0>       0.0700
   49 H49       0.2717     5.4202     5.5966 H      1 <0>       0.0600
   50 H50       0.0835     5.1926     8.6286 H      1 <0>       0.0800
   51 H51      -0.5751     6.4861     7.6029 H      1 <0>       0.0700
   52 H52      -2.7227     6.0000     8.7674 H      1 <0>       0.1300
   53 H53      -4.8486     4.7377     8.5365 H      1 <0>       0.1300
   54 H54      -4.8870     2.7014     7.1455 H      1 <0>       0.1400
@<TRIPOS>BOND
   1    1    2 1
   2    1    3 1
   3    1    4 1
   4    1    5 1
   5    5    6 1
   6    5   31 1
   7    5   32 1
   8    6    7 1
   9    6   33 1
  10    6   34 1
  11    7    8 1
  12    7   35 1
  13    7   36 1
  14    8    9 1
  15    8   37 1
  16    8   38 1
  17    9   10 1
  18    9   20 1
  19   10   11 1
  20   10   39 1
  21   10   40 1
  22   11   19 1
  23   11   12 2
  24   12   13 1
  25   13   18 ar
  26   13   14 ar
  27   14   15 ar
  28   14   41 1
  29   15   16 ar
  30   15   42 1
  31   16   17 ar
  32   16   43 1
  33   17   18 ar
  34   17   44 1
  35   18   19 1
  36   19   45 1
  37   20   21 1
  38   20   30 1
  39   20   22 1
  40   22   23 1
  41   22   46 1
  42   22   47 1
  43   23   24 1
  44   23   48 1
  45   23   49 1
  46   24   25 1
  47   24   50 1
  48   24   51 1
  49   25   30 ar
  50   25   26 ar
  51   26   27 ar
  52   26   52 1
  53   27   28 ar
  54   27   53 1
  55   28   29 ar
  56   28   54 1
  57   29   30 ar
