@<TRIPOS>MOLECULE
ZINC000013489187
  57   59    0    0    0
SMALL
USER_CHARGES
NO_NAME
@<TRIPOS>ATOM
    1 C1       -0.0443     1.4656    -0.4308 C.3    1 <0>       0.0900
    2 N2       -0.0232     0.0007    -0.4333 N.pl3  1 <0>      -0.6300
    3 C3        1.2519    -0.7134    -0.5351 C.3    1 <0>       0.0900
    4 C4       -1.2171    -0.7140    -0.3388 C.ar   1 <0>       0.2300
    5 C5       -1.1955    -2.1044    -0.3354 C.ar   1 <0>      -0.2100
    6 C6       -2.3739    -2.8127    -0.2416 C.ar   1 <0>      -0.0300
    7 C7       -3.5889    -2.1339    -0.1500 C.ar   1 <0>      -0.1200
    8 C8       -4.8576    -2.8934    -0.0485 C.ar   1 <0>       0.1900
    9 N9       -4.8183    -4.2272    -0.0408 N.ar   1 <0>      -0.5000
   10 C10      -5.9073    -4.9652     0.0475 C.ar   1 <0>       0.4300
   11 N11      -5.8093    -6.3449     0.0517 N.pl3  1 <0>      -0.6600
   12 C12      -5.6407    -7.0634     1.3171 C.3    1 <0>       0.1100
   13 C13      -5.8742    -7.0876    -1.2094 C.3    1 <0>       0.1500
   14 C14      -4.4640    -7.2449    -1.7818 C.3    1 <0>      -0.1800
   15 C15      -4.5318    -8.0206    -3.0989 C.3    1 <0>      -0.0100
   16 N16      -3.1778    -8.1716    -3.6484 N.4    1 <0>      -0.3900
   17 H17      -2.5808    -8.6020    -2.9583 H      1 <0>       0.4300
   18 C18      -3.2279    -9.0174    -4.8484 C.3    1 <0>      -0.0500
   19 C19      -2.6430    -6.8501    -4.0028 C.3    1 <0>      -0.0500
   20 C20      -7.1741    -4.3467     0.1383 C.ar   1 <0>      -0.1700
   21 C21      -8.3583    -5.0914     0.2343 C.ar   1 <0>      -0.0300
   22 C22      -9.5427    -4.4107     0.3187 C.ar   1 <0>      -0.1800
   23 C23      -9.5482    -3.0192     0.3078 C.ar   1 <0>       0.1600
   24 N24      -8.4372    -2.3251     0.2177 N.ar   1 <0>      -0.4800
   25 C25      -7.2509    -2.9302     0.1326 C.ar   1 <0>       0.1700
   26 C26      -6.0516    -2.2022     0.0414 C.ar   1 <0>      -0.1500
   27 C27      -3.6082    -0.7393    -0.1536 C.ar   1 <0>      -0.0400
   28 C28      -2.4269    -0.0351    -0.2422 C.ar   1 <0>      -0.2000
   29 H29       0.9748     1.8437    -0.5117 H      1 <0>       0.0800
   30 H30      -0.6322     1.8219    -1.2767 H      1 <0>       0.0600
   31 H31      -0.4911     1.8210     0.4977 H      1 <0>       0.0600
   32 H32       1.6496    -0.8910     0.4641 H      1 <0>       0.0500
   33 H33       1.0949    -1.6673    -1.0386 H      1 <0>       0.0700
   34 H34       1.9599    -0.1131    -1.1065 H      1 <0>       0.0700
   35 H35      -0.2545    -2.6296    -0.4067 H      1 <0>       0.1200
   36 H36      -2.3566    -3.8925    -0.2394 H      1 <0>       0.1300
   37 H37      -6.6144    -7.3900     1.6821 H      1 <0>       0.0500
   38 H38      -5.0017    -7.9323     1.1593 H      1 <0>       0.0600
   39 H39      -5.1804    -6.4026     2.0517 H      1 <0>       0.0600
   40 H40      -6.3051    -8.0725    -1.0293 H      1 <0>       0.0800
   41 H41      -6.4961    -6.5434    -1.9201 H      1 <0>       0.0700
   42 H42      -4.0331    -6.2600    -1.9620 H      1 <0>       0.0900
   43 H43      -3.8420    -7.7891    -1.0712 H      1 <0>       0.0900
   44 H44      -4.9627    -9.0055    -2.9187 H      1 <0>       0.1300
   45 H45      -5.1537    -7.4763    -3.8095 H      1 <0>       0.1300
   46 H46      -3.8729    -8.5524    -5.5940 H      1 <0>       0.1200
   47 H47      -2.2233    -9.1294    -5.2562 H      1 <0>       0.1200
   48 H48      -3.6248    -9.9980    -4.5855 H      1 <0>       0.1200
   49 H49      -2.6058    -6.2224    -3.1124 H      1 <0>       0.1300
   50 H50      -1.6384    -6.9621    -4.4106 H      1 <0>       0.1200
   51 H51      -3.2880    -6.3851    -4.7484 H      1 <0>       0.1200
   52 H52      -8.3364    -6.1712     0.2412 H      1 <0>       0.1400
   53 H53     -10.4732    -4.9537     0.3935 H      1 <0>       0.1400
   54 H54     -10.4910    -2.4965     0.3747 H      1 <0>       0.1700
   55 H55      -6.0630    -1.1222     0.0382 H      1 <0>       0.1500
   56 H56      -4.5478    -0.2116    -0.0827 H      1 <0>       0.1300
   57 H57      -2.4413     1.0448    -0.2450 H      1 <0>       0.1300
@<TRIPOS>BOND
   1    1    2 1
   2    1   29 1
   3    1   30 1
   4    1   31 1
   5    2    3 1
   6    2    4 1
   7    3   32 1
   8    3   33 1
   9    3   34 1
  10    4   28 ar
  11    4    5 ar
  12    5    6 ar
  13    5   35 1
  14    6    7 ar
  15    6   36 1
  16    7    8 1
  17    7   27 ar
  18    8   26 ar
  19    8    9 ar
  20    9   10 ar
  21   10   11 1
  22   10   20 ar
  23   11   12 1
  24   11   13 1
  25   12   37 1
  26   12   38 1
  27   12   39 1
  28   13   14 1
  29   13   40 1
  30   13   41 1
  31   14   15 1
  32   14   42 1
  33   14   43 1
  34   15   16 1
  35   15   44 1
  36   15   45 1
  37   16   17 1
  38   16   18 1
  39   16   19 1
  40   18   46 1
  41   18   47 1
  42   18   48 1
  43   19   49 1
  44   19   50 1
  45   19   51 1
  46   20   25 ar
  47   20   21 ar
  48   21   22 ar
  49   21   52 1
  50   22   23 ar
  51   22   53 1
  52   23   24 ar
  53   23   54 1
  54   24   25 ar
  55   25   26 ar
  56   26   55 1
  57   27   28 ar
  58   27   56 1
  59   28   57 1
