@<TRIPOS>MOLECULE
ZINC000150644773
24    25    1     0     0
SMALL
USER_CHARGES
@<TRIPOS>ATOM
1      C1     -0.0187    1.5258    0.0104 C.3      1 ZINC000150644773   -0.1400
2      C2      0.0021   -0.0041    0.0020 C.3      1 ZINC000150644773    0.0600
3      H3      0.5123   -0.3556   -0.8948 H        1 ZINC000150644773    0.1100
4      C4      0.7309   -0.5033    1.2229 C.2      1 ZINC000150644773    0.5000
5      O5      0.1148   -1.0603    2.1155 O.co2    1 ZINC000150644773   -0.6700
6      O6      1.9368   -0.3502    1.3181 O.co2    1 ZINC000150644773   -0.6800
7      N7     -1.3723   -0.5112    0.0124 N.am     1 ZINC000150644773   -0.5300
8      C8     -2.2708   -0.2547    0.9802 C.2      1 ZINC000150644773    0.5700
9      O9     -2.0744    0.4240    1.9681 O.2      1 ZINC000150644773   -0.4000
10     C10    -3.5367   -0.9358    0.6398 C.ar     1 ZINC000150644773   -0.0700
11     C11    -4.7791   -1.0291    1.2467 C.ar     1 ZINC000150644773   -0.0200
12     I12    -5.1383   -0.0505    3.0639 I        1 ZINC000150644773    0.0400
13     C13    -5.7847   -1.7734    0.6451 C.ar     1 ZINC000150644773   -0.0400
14     I14    -7.6638   -1.9151    1.5607 I        1 ZINC000150644773    0.0400
15     C15    -5.5548   -2.4214   -0.5543 C.ar     1 ZINC000150644773   -0.0500
16     I16    -7.0877   -3.5383   -1.4440 I        1 ZINC000150644773    0.0400
17     C17    -4.3152   -2.3365   -1.1733 C.ar     1 ZINC000150644773   -0.0100
18     I18    -3.9775   -3.3218   -2.9910 I        1 ZINC000150644773    0.0400
19     C19    -3.3021   -1.5970   -0.5840 C.ar     1 ZINC000150644773   -0.0900
20     C20    -1.9035   -1.2898   -0.9474 C.2      1 ZINC000150644773    0.5700
21     O21    -1.3286   -1.6775   -1.9446 O.2      1 ZINC000150644773   -0.4400
22     H22     1.0039    1.9031    0.0027 H        1 ZINC000150644773    0.0800
23     H23    -0.5459    1.8868   -0.8726 H        1 ZINC000150644773    0.0500
24     H24    -0.5289    1.8773    0.9072 H        1 ZINC000150644773    0.0700
@<TRIPOS>BOND
1     1     2     1
2     1     22    1
3     1     23    1
4     1     24    1
5     2     3     1
6     2     4     1
7     2     7     1
8     4     5     ar
9     4     6     ar
10    7     20    am
11    7     8     am
12    8     9     2
13    8     10    1
14    10    19    ar
15    10    11    ar
16    11    12    1
17    11    13    ar
18    13    14    1
19    13    15    ar
20    15    16    1
21    15    17    ar
22    17    18    1
23    17    19    ar
24    19    20    1
25    20    21    2
@<TRIPOS>SUBSTRUCTURE
1   ZINC000150644773 1     RESIDUE    1   A     ZIN   1
