@<TRIPOS>MOLECULE
ZINC000034885047
53    56    1     0     0
SMALL
USER_CHARGES
@<TRIPOS>ATOM
1      C1      0.1880   -8.2350   -1.0316 C.3      1 ZINC000034885047   -0.1000
2      C2      0.1566   -6.7607   -0.7206 C.2      1 ZINC000034885047    0.0900
3      C3      0.1195   -5.7567   -1.6259 C.2      1 ZINC000034885047   -0.2700
4      C4      0.0995   -4.5420   -0.9214 C.2      1 ZINC000034885047    0.3100
5      N5      0.0596   -3.2622   -1.4891 N.pl3    1 ZINC000034885047   -0.6100
6      C6      0.1466   -3.1108   -2.8653 C.ar     1 ZINC000034885047    0.4600
7      C7      0.2272   -1.8408   -3.4314 C.ar     1 ZINC000034885047   -0.3000
8      C8      0.3130   -1.7354   -4.8179 C.ar     1 ZINC000034885047    0.3900
9      N9      0.3954   -0.4911   -5.4236 N.3      1 ZINC000034885047   -0.4800
10     C10    -0.7384    0.3596   -5.0358 C.3      1 ZINC000034885047    0.0600
11     C11    -0.5691    1.7467   -5.6600 C.3      1 ZINC000034885047    0.0500
12     N12    -0.4876    1.6167   -7.1215 N.3      1 ZINC000034885047   -0.5500
13     C13    -0.4003    2.9352   -7.7633 C.3      1 ZINC000034885047    0.0200
14     C14     0.6463    0.7660   -7.5093 C.3      1 ZINC000034885047    0.0500
15     C15     0.4769   -0.6211   -6.8851 C.3      1 ZINC000034885047    0.0700
16     N16     0.3153   -2.8433   -5.5528 N.ar     1 ZINC000034885047   -0.5700
17     C17     0.2371   -4.0397   -4.9796 C.ar     1 ZINC000034885047    0.4100
18     C18     0.2430   -5.2437   -5.8274 C.2      1 ZINC000034885047   -0.1100
19     C19     0.0538   -6.4541   -5.2763 C.2      1 ZINC000034885047   -0.0500
20     C20    -0.0510   -7.6467   -6.1356 C.ar     1 ZINC000034885047   -0.0700
21     C21     0.0517   -7.5231   -7.5239 C.ar     1 ZINC000034885047   -0.1000
22     C22    -0.0469   -8.6437   -8.3216 C.ar     1 ZINC000034885047   -0.1200
23     C23    -0.2475   -9.8882   -7.7507 C.ar     1 ZINC000034885047   -0.1100
24     C24    -0.3502  -10.0184   -6.3768 C.ar     1 ZINC000034885047   -0.1200
25     C25    -0.2478   -8.9075   -5.5659 C.ar     1 ZINC000034885047   -0.1000
26     N26     0.1596   -4.1767   -3.6605 N.ar     1 ZINC000034885047   -0.5700
27     N27     0.1240   -4.8158    0.3618 N.2      1 ZINC000034885047   -0.3300
28     N28     0.1548   -6.2082    0.5108 N.pl3    1 ZINC000034885047   -0.4700
29     H29    -0.8318   -8.6142   -1.0970 H        1 ZINC000034885047    0.0800
30     H30     0.6969   -8.3951   -1.9821 H        1 ZINC000034885047    0.0900
31     H31     0.7215   -8.7619   -0.2405 H        1 ZINC000034885047    0.0700
32     H32     0.1077   -5.8691   -2.6999 H        1 ZINC000034885047    0.1800
33     H33    -0.0288   -2.4817   -0.9200 H        1 ZINC000034885047    0.4300
34     H34     0.2228   -0.9578   -2.8096 H        1 ZINC000034885047    0.1500
35     H35    -1.6668   -0.0880   -5.3906 H        1 ZINC000034885047    0.0600
36     H36    -0.7700    0.4508   -3.9501 H        1 ZINC000034885047    0.0900
37     H37    -1.4236    2.3704   -5.3975 H        1 ZINC000034885047    0.0900
38     H38     0.3455    2.2054   -5.2842 H        1 ZINC000034885047    0.0500
39     H39     0.4903    3.4537   -7.4084 H        1 ZINC000034885047    0.0300
40     H40    -0.3411    2.8098   -8.8445 H        1 ZINC000034885047    0.0700
41     H41    -1.2853    3.5203   -7.5133 H        1 ZINC000034885047    0.0700
42     H42     0.6778    0.6748   -8.5951 H        1 ZINC000034885047    0.0900
43     H43     1.5747    1.2136   -7.1545 H        1 ZINC000034885047    0.0400
44     H44     1.3314   -1.2448   -7.1477 H        1 ZINC000034885047    0.0900
45     H45    -0.4377   -1.0798   -7.2609 H        1 ZINC000034885047    0.0600
46     H46     0.3994   -5.1537   -6.8922 H        1 ZINC000034885047    0.1400
47     H47    -0.0215   -6.5532   -4.2035 H        1 ZINC000034885047    0.1400
48     H48     0.2076   -6.5523   -7.9709 H        1 ZINC000034885047    0.1300
49     H49     0.0323   -8.5498   -9.3946 H        1 ZINC000034885047    0.1300
50     H50    -0.3247  -10.7622   -8.3805 H        1 ZINC000034885047    0.1200
51     H51    -0.5071  -10.9928   -5.9383 H        1 ZINC000034885047    0.1300
52     H52    -0.3282   -9.0105   -4.4939 H        1 ZINC000034885047    0.1300
53     H53     0.1768   -6.6909    1.3519 H        1 ZINC000034885047    0.4400
@<TRIPOS>BOND
1     1     2     1
2     1     29    1
3     1     30    1
4     1     31    1
5     2     28    1
6     2     3     2
7     3     4     1
8     3     32    1
9     4     5     1
10    4     27    2
11    5     6     1
12    5     33    1
13    6     26    ar
14    6     7     ar
15    7     8     ar
16    7     34    1
17    8     9     1
18    8     16    ar
19    9     15    1
20    9     10    1
21    10    11    1
22    10    35    1
23    10    36    1
24    11    12    1
25    11    37    1
26    11    38    1
27    12    13    1
28    12    14    1
29    13    39    1
30    13    40    1
31    13    41    1
32    14    15    1
33    14    42    1
34    14    43    1
35    15    44    1
36    15    45    1
37    16    17    ar
38    17    18    1
39    17    26    ar
40    18    19    2
41    18    46    1
42    19    20    1
43    19    47    1
44    20    25    ar
45    20    21    ar
46    21    22    ar
47    21    48    1
48    22    23    ar
49    22    49    1
50    23    24    ar
51    23    50    1
52    24    25    ar
53    24    51    1
54    25    52    1
55    27    28    1
56    28    53    1
@<TRIPOS>SUBSTRUCTURE
1   ZINC000034885047 1     RESIDUE    1   A     ZIN   1
