@<TRIPOS>MOLECULE
ZINC000025757829
33    36    1     0     0
SMALL
USER_CHARGES
@<TRIPOS>ATOM
1      C1     -0.0187    1.5258    0.0104 C.3      1 ZINC000025757829   -0.1600
2      C2      0.0021   -0.0041    0.0020 C.3      1 ZINC000025757829    0.1700
3      N3     -1.3618   -0.6184    0.0144 N.4      1 ZINC000025757829   -0.5200
4      H4     -1.7514   -0.6199    0.9452 H        1 ZINC000025757829    0.4400
5      H5     -1.9769   -0.1511   -0.6348 H        1 ZINC000025757829    0.4300
6      C6     -1.0512   -2.0068   -0.4413 C.3      1 ZINC000025757829    0.1000
7      H7     -1.9304   -2.4911   -0.8662 H        1 ZINC000025757829    0.1600
8      C8     -0.5301   -2.7742    0.7764 C.3      1 ZINC000025757829   -0.1000
9      C9      0.4743   -1.9475    1.5373 C.ar     1 ZINC000025757829   -0.0900
10     C10     1.1583   -2.5228    2.5964 C.ar     1 ZINC000025757829   -0.1000
11     C11     2.0766   -1.7804    3.3133 C.ar     1 ZINC000025757829   -0.0900
12     C12     2.3166   -0.4607    2.9800 C.ar     1 ZINC000025757829   -0.1100
13     C13     1.6375    0.1148    1.9207 C.ar     1 ZINC000025757829   -0.0800
14     C14     0.7334   -0.6025    1.1907 C.ar     1 ZINC000025757829   -0.1300
15     C15     0.0216   -1.8227   -1.4742 C.ar     1 ZINC000025757829   -0.1400
16     C16     0.4269   -2.6362   -2.5144 C.ar     1 ZINC000025757829   -0.0600
17     C17     1.4559   -2.1615   -3.3199 C.ar     1 ZINC000025757829   -0.1000
18     C18     2.0464   -0.9352   -3.0961 C.ar     1 ZINC000025757829   -0.0900
19     C19     1.6469   -0.1162   -2.0448 C.ar     1 ZINC000025757829   -0.0600
20     C20     0.6594   -0.5900   -1.2261 C.ar     1 ZINC000025757829   -0.1200
21     H21     1.0039    1.9031    0.0027 H        1 ZINC000025757829    0.1100
22     H22    -0.5459    1.8868   -0.8726 H        1 ZINC000025757829    0.0900
23     H23    -0.5289    1.8773    0.9072 H        1 ZINC000025757829    0.0900
24     H24    -1.3660   -3.0170    1.4325 H        1 ZINC000025757829    0.1100
25     H25    -0.0563   -3.6976    0.4431 H        1 ZINC000025757829    0.1200
26     H26     0.9730   -3.5532    2.8618 H        1 ZINC000025757829    0.1400
27     H27     2.6085   -2.2326    4.1374 H        1 ZINC000025757829    0.1400
28     H28     3.0314    0.1195    3.5447 H        1 ZINC000025757829    0.1400
29     H29     1.8201    1.1459    1.6563 H        1 ZINC000025757829    0.1300
30     H30    -0.0338   -3.5964   -2.6933 H        1 ZINC000025757829    0.1500
31     H31     1.8018   -2.7690   -4.1432 H        1 ZINC000025757829    0.1400
32     H32     2.8375   -0.6033   -3.7521 H        1 ZINC000025757829    0.1400
33     H33     2.1082    0.8443   -1.8685 H        1 ZINC000025757829    0.1400
@<TRIPOS>BOND
1     1     2     1
2     1     21    1
3     1     22    1
4     1     23    1
5     2     14    1
6     2     20    1
7     2     3     1
8     3     4     1
9     3     5     1
10    3     6     1
11    6     7     1
12    6     8     1
13    6     15    1
14    8     9     1
15    8     24    1
16    8     25    1
17    9     14    ar
18    9     10    ar
19    10    11    ar
20    10    26    1
21    11    12    ar
22    11    27    1
23    12    13    ar
24    12    28    1
25    13    14    ar
26    13    29    1
27    15    20    ar
28    15    16    ar
29    16    17    ar
30    16    30    1
31    17    18    ar
32    17    31    1
33    18    19    ar
34    18    32    1
35    19    20    ar
36    19    33    1
@<TRIPOS>SUBSTRUCTURE
1   ZINC000025757829 1     RESIDUE    1   A     ZIN   1
