@<TRIPOS>MOLECULE
ZINC000000036804
36    39    1     0     0
SMALL
USER_CHARGES
@<TRIPOS>ATOM
1      O1      0.0021   -0.0041    0.0020 O.2      1 ZINC000000036804   -0.4700
2      C2     -0.0144    1.2080    0.0087 C.2      1 ZINC000000036804    0.5500
3      C3      1.2803    1.9792    0.0005 C.3      1 ZINC000000036804   -0.1600
4      C4      2.4566    1.0009   -0.0160 C.3      1 ZINC000000036804    0.1500
5      N5      3.7152    1.7506   -0.0240 N.am     1 ZINC000000036804   -0.5500
6      C6      4.3866    2.1694   -1.1151 C.2      1 ZINC000000036804    0.6400
7      O7      4.0413    1.9837   -2.2661 O.2      1 ZINC000000036804   -0.4800
8      O8      5.4953    2.8231   -0.7343 O.3      1 ZINC000000036804   -0.2300
9      C9      5.5605    2.8384    0.6196 C.ar     1 ZINC000000036804    0.0400
10     C10     6.4753    3.3676    1.5158 C.ar     1 ZINC000000036804   -0.0800
11     C11     6.2716    3.2228    2.8747 C.ar     1 ZINC000000036804   -0.1100
12     C12     5.1578    2.5508    3.3462 C.ar     1 ZINC000000036804   -0.1000
13     C13     4.2402    2.0196    2.4602 C.ar     1 ZINC000000036804   -0.1000
14     C14     4.4345    2.1666    1.0961 C.ar     1 ZINC000000036804    0.0700
15     N15    -1.1906    1.8660    0.0178 N.am     1 ZINC000000036804   -0.5200
16     C16    -1.3563    3.2036    0.0200 C.2      1 ZINC000000036804    0.6500
17     O17    -0.4578    4.0219    0.0137 O.2      1 ZINC000000036804   -0.4500
18     O18    -2.6669    3.4921    0.0294 O.3      1 ZINC000000036804   -0.2300
19     C19    -3.3786    2.3381    0.0335 C.ar     1 ZINC000000036804    0.0500
20     C20    -4.7371    2.0659    0.0429 C.ar     1 ZINC000000036804   -0.0800
21     C21    -5.1776    0.7562    0.0450 C.ar     1 ZINC000000036804   -0.0900
22     C22    -4.2679   -0.2862    0.0383 C.ar     1 ZINC000000036804   -0.1000
23     C23    -2.9110   -0.0239    0.0290 C.ar     1 ZINC000000036804   -0.0700
24     C24    -2.4627    1.2864    0.0207 C.ar     1 ZINC000000036804    0.0400
25     H25     1.3211    2.6114   -0.8866 H        1 ZINC000000036804    0.1200
26     H26     1.3381    2.6018    0.8933 H        1 ZINC000000036804    0.1200
27     H27     2.4158    0.3688    0.8710 H        1 ZINC000000036804    0.1100
28     H28     2.3989    0.3783   -0.9088 H        1 ZINC000000036804    0.1100
29     H29     7.3466    3.8924    1.1526 H        1 ZINC000000036804    0.1400
30     H30     6.9854    3.6358    3.5722 H        1 ZINC000000036804    0.1400
31     H31     5.0054    2.4408    4.4097 H        1 ZINC000000036804    0.1400
32     H32     3.3714    1.4954    2.8299 H        1 ZINC000000036804    0.1300
33     H33    -5.4509    2.8764    0.0488 H        1 ZINC000000036804    0.1500
34     H34    -6.2367    0.5453    0.0522 H        1 ZINC000000036804    0.1500
35     H35    -4.6191   -1.3075    0.0407 H        1 ZINC000000036804    0.1500
36     H36    -2.2021   -0.8387    0.0237 H        1 ZINC000000036804    0.1500
@<TRIPOS>BOND
1     1     2     2
2     2     3     1
3     2     15    am
4     3     4     1
5     3     25    1
6     3     26    1
7     4     5     1
8     4     27    1
9     4     28    1
10    5     14    1
11    5     6     am
12    6     7     2
13    6     8     1
14    8     9     1
15    9     14    ar
16    9     10    ar
17    10    11    ar
18    10    29    1
19    11    12    ar
20    11    30    1
21    12    13    ar
22    12    31    1
23    13    14    ar
24    13    32    1
25    15    24    1
26    15    16    am
27    16    17    2
28    16    18    1
29    18    19    1
30    19    24    ar
31    19    20    ar
32    20    21    ar
33    20    33    1
34    21    22    ar
35    21    34    1
36    22    23    ar
37    22    35    1
38    23    24    ar
39    23    36    1
@<TRIPOS>SUBSTRUCTURE
1   ZINC000000036804 1     RESIDUE    1   A     ZIN   1
