@<TRIPOS>MOLECULE
ZINC000018136415
32    34    1     0     0
SMALL
USER_CHARGES
@<TRIPOS>ATOM
1      C1     -0.0173    1.4248    0.0099 C.3      1 ZINC000018136415    0.0200
2      O2      0.0021   -0.0041    0.0020 O.3      1 ZINC000018136415   -0.3100
3      C3      0.6250   -0.6175    1.0401 C.2      1 ZINC000018136415    0.2500
4      C4      1.1947    0.1543    2.0388 C.2      1 ZINC000018136415   -0.3600
5      C5      1.8398   -0.4594    3.1148 C.2      1 ZINC000018136415    0.3800
6      O6      2.3923    0.2709    4.0826 O.2      1 ZINC000018136415   -0.5700
7      C7      1.8959   -1.9193    3.1574 C.2      1 ZINC000018136415   -0.2900
8      C8      2.5322   -2.5950    4.2172 C.2      1 ZINC000018136415    0.3300
9      O9      3.1106   -1.9099    5.2279 O.3      1 ZINC000018136415   -0.3900
10     C10     2.5492   -3.9943    4.1964 C.2      1 ZINC000018136415   -0.3300
11     C11     1.9516   -4.6687    3.1543 C.2      1 ZINC000018136415    0.2600
12     C12     1.9756   -6.1440    3.1424 C.ar     1 ZINC000018136415   -0.0900
13     C13     2.5935   -6.8443    4.1816 C.ar     1 ZINC000018136415   -0.0700
14     C14     2.6117   -8.2233    4.1641 C.ar     1 ZINC000018136415   -0.1200
15     C15     2.0198   -8.9132    3.1206 C.ar     1 ZINC000018136415   -0.0800
16     C16     1.4059   -8.2262    2.0880 C.ar     1 ZINC000018136415   -0.1200
17     C17     1.3754   -6.8473    2.0949 C.ar     1 ZINC000018136415   -0.0700
18     O18     1.3475   -4.0144    2.1494 O.3      1 ZINC000018136415   -0.1900
19     C19     1.3012   -2.6659    2.1179 C.2      1 ZINC000018136415    0.2100
20     C20     0.6714   -2.0048    1.0793 C.2      1 ZINC000018136415   -0.2500
21     H21     1.0053    1.8021    0.0021 H        1 ZINC000018136415    0.0600
22     H22    -0.5445    1.7859   -0.8732 H        1 ZINC000018136415    0.1000
23     H23    -0.5275    1.7763    0.9067 H        1 ZINC000018136415    0.0600
24     H24     1.1405    1.2316    1.9855 H        1 ZINC000018136415    0.1400
25     H25     3.5178   -2.4716    5.9014 H        1 ZINC000018136415    0.4100
26     H26     3.0290   -4.5429    4.9934 H        1 ZINC000018136415    0.1700
27     H27     3.0562   -6.3072    4.9964 H        1 ZINC000018136415    0.1400
28     H28     3.0892   -8.7660    4.9665 H        1 ZINC000018136415    0.1400
29     H29     2.0373   -9.9930    3.1120 H        1 ZINC000018136415    0.1300
30     H30     0.9460   -8.7711    1.2769 H        1 ZINC000018136415    0.1400
31     H31     0.8957   -6.3125    1.2886 H        1 ZINC000018136415    0.1400
32     H32     0.2121   -2.5755    0.2857 H        1 ZINC000018136415    0.1500
@<TRIPOS>BOND
1     1     2     1
2     1     21    1
3     1     22    1
4     1     23    1
5     2     3     1
6     3     20    1
7     3     4     2
8     4     5     1
9     4     24    1
10    5     6     2
11    5     7     1
12    7     19    1
13    7     8     2
14    8     9     1
15    8     10    1
16    9     25    1
17    10    11    2
18    10    26    1
19    11    12    1
20    11    18    1
21    12    17    ar
22    12    13    ar
23    13    14    ar
24    13    27    1
25    14    15    ar
26    14    28    1
27    15    16    ar
28    15    29    1
29    16    17    ar
30    16    30    1
31    17    31    1
32    18    19    1
33    19    20    2
34    20    32    1
@<TRIPOS>SUBSTRUCTURE
1   ZINC000018136415 1     RESIDUE    1   A     ZIN   1
