@<TRIPOS>MOLECULE
ZINC000012406714
27    28    1     0     0
SMALL
USER_CHARGES
@<TRIPOS>ATOM
1      C1      0.0995    1.3386    0.0318 C.3      1 ZINC000012406714   -0.1500
2      C2      0.0670   -0.1899    0.0904 C.3      1 ZINC000012406714   -0.0900
3      C3     -1.3638   -0.6628    0.0779 C.ar     1 ZINC000012406714   -0.0500
4      C4     -2.0449   -0.8269    1.2717 C.ar     1 ZINC000012406714   -0.1200
5      C5     -3.3539   -1.2595    1.2690 C.ar     1 ZINC000012406714   -0.0900
6      C6     -3.9940   -1.5326    0.0550 C.ar     1 ZINC000012406714   -0.1100
7      C7     -5.3897   -1.9938    0.0428 C.2      1 ZINC000012406714    0.1000
8      C8     -6.1892   -1.7639    1.1138 C.2      1 ZINC000012406714   -0.2800
9      S9     -5.8392   -0.7751    2.5456 S.3      1 ZINC000012406714    0.1400
10     C10    -7.4044   -1.0844    3.3172 C.2      1 ZINC000012406714    0.2500
11     S11    -7.9350   -0.4742    4.8262 S.2      1 ZINC000012406714   -0.3600
12     N12    -8.0921   -1.8855    2.4957 N.am     1 ZINC000012406714   -0.6200
13     C13    -7.5475   -2.2706    1.3535 C.2      1 ZINC000012406714    0.5500
14     O14    -8.1234   -2.9980    0.5661 O.2      1 ZINC000012406714   -0.4600
15     C15    -3.2984   -1.3637   -1.1474 C.ar     1 ZINC000012406714   -0.0700
16     C16    -1.9915   -0.9253   -1.1276 C.ar     1 ZINC000012406714   -0.1200
17     H17     1.1344    1.6807    0.0409 H        1 ZINC000012406714    0.0600
18     H18    -0.3873    1.6776   -0.8826 H        1 ZINC000012406714    0.0600
19     H19    -0.4255    1.7465    0.8956 H        1 ZINC000012406714    0.0600
20     H20     0.5920   -0.5978   -0.7734 H        1 ZINC000012406714    0.0800
21     H21     0.5538   -0.5289    1.0048 H        1 ZINC000012406714    0.0800
22     H22    -1.5494   -0.6157    2.2078 H        1 ZINC000012406714    0.1300
23     H23    -3.8838   -1.3878    2.2013 H        1 ZINC000012406714    0.1300
24     H24    -5.7784   -2.5159   -0.8190 H        1 ZINC000012406714    0.1600
25     H25    -8.9858   -2.1781    2.7338 H        1 ZINC000012406714    0.4300
26     H26    -3.7854   -1.5722   -2.0886 H        1 ZINC000012406714    0.1400
27     H27    -1.4533   -0.7941   -2.0547 H        1 ZINC000012406714    0.1300
@<TRIPOS>BOND
1     1     2     1
2     1     17    1
3     1     18    1
4     1     19    1
5     2     3     1
6     2     20    1
7     2     21    1
8     3     16    ar
9     3     4     ar
10    4     5     ar
11    4     22    1
12    5     6     ar
13    5     23    1
14    6     7     1
15    6     15    ar
16    7     8     2
17    7     24    1
18    8     13    1
19    8     9     1
20    9     10    1
21    10    11    2
22    10    12    am
23    12    13    am
24    12    25    1
25    13    14    2
26    15    16    ar
27    15    26    1
28    16    27    1
@<TRIPOS>SUBSTRUCTURE
1   ZINC000012406714 1     RESIDUE    1   A     ZIN   1
