@<TRIPOS>MOLECULE
ZINC000072317698
  43   45    0    0    0
SMALL
USER_CHARGES
NO_NAME
@<TRIPOS>ATOM
    1 C1        1.4115     1.4255     0.6146 C.3    1 <0>       0.0200
    2 O2        1.3115     0.0008     0.5695 O.3    1 <0>      -0.3100
    3 C3        1.6389    -0.6038    -0.6025 C.ar   1 <0>       0.1800
    4 C4        1.5573    -1.9799    -0.7118 C.ar   1 <0>      -0.1800
    5 C5        1.8913    -2.6040    -1.9091 C.ar   1 <0>       0.1900
    6 C6        2.3093    -1.8239    -2.9993 C.ar   1 <0>      -0.1400
    7 C7        2.3870    -0.4372    -2.8767 C.ar   1 <0>      -0.0100
    8 C8        2.0486     0.1665    -1.6869 C.ar   1 <0>      -0.2300
    9 C9        2.5853    -2.7605    -4.0993 C.ar   1 <0>      -0.0500
   10 C10       2.3171    -4.0492    -3.6061 C.ar   1 <0>       0.1300
   11 C11       2.4993    -5.1344    -4.4546 C.ar   1 <0>       0.0200
   12 C12       2.2202    -6.5286    -3.9552 C.3    1 <0>       0.5200
   13 F13       0.8520    -6.6668    -3.6983 F      1 <0>      -0.1700
   14 F14       2.6087    -7.4581    -4.9259 F      1 <0>      -0.1500
   15 F15       2.9410    -6.7552    -2.7777 F      1 <0>      -0.1800
   16 N16       2.9136    -4.9545    -5.6920 N.ar   1 <0>      -0.4100
   17 C17       3.1743    -3.7568    -6.1858 C.ar   1 <0>       0.0700
   18 C18       3.0222    -2.6229    -5.4165 C.ar   1 <0>      -0.0800
   19 N19       1.9027    -3.9331    -2.2924 N.pl3  1 <0>      -0.4900
   20 C20       1.5295    -5.0567    -1.4296 C.3    1 <0>       0.0900
   21 C21       2.7301    -5.4617    -0.5718 C.3    1 <0>      -0.1400
   22 C22       2.3822    -6.7158     0.2326 C.3    1 <0>      -0.1500
   23 C23       3.5827    -7.1208     1.0903 C.3    1 <0>      -0.0100
   24 N24       3.2488    -8.3249     1.8626 N.4    1 <0>      -0.6400
   25 H25       2.4583    -8.1331     2.4597 H      1 <0>       0.4400
   26 H26       3.0182    -9.0768     1.2305 H      1 <0>       0.4400
   27 H27       4.0405    -8.5920     2.4283 H      1 <0>       0.4400
   28 H28       2.4391     1.7244     0.4080 H      1 <0>       0.0600
   29 H29       0.7492     1.8601    -0.1341 H      1 <0>       0.0600
   30 H30       1.1224     1.7789     1.6044 H      1 <0>       0.1100
   31 H31       1.2346    -2.5703     0.1330 H      1 <0>       0.1300
   32 H32       2.7085     0.1627    -3.7153 H      1 <0>       0.1400
   33 H33       2.1085     1.2407    -1.5922 H      1 <0>       0.1400
   34 H34       3.5116    -3.6649    -7.2076 H      1 <0>       0.1800
   35 H35       3.2370    -1.6470    -5.8262 H      1 <0>       0.1500
   36 H36       0.7044    -4.7595    -0.7824 H      1 <0>       0.1000
   37 H37       1.2218    -5.9015    -2.0458 H      1 <0>       0.1000
   38 H38       3.5840    -5.6689    -1.2168 H      1 <0>       0.0900
   39 H39       2.9792    -4.6495     0.1111 H      1 <0>       0.0800
   40 H40       1.5283    -6.5086     0.8775 H      1 <0>       0.0900
   41 H41       2.1331    -7.5280    -0.4503 H      1 <0>       0.0900
   42 H42       4.4367    -7.3280     0.4453 H      1 <0>       0.1400
   43 H43       3.8319    -6.3086     1.7732 H      1 <0>       0.1400
@<TRIPOS>BOND
   1    1    2 1
   2    1   28 1
   3    1   29 1
   4    1   30 1
   5    2    3 1
   6    3    8 ar
   7    3    4 ar
   8    4    5 ar
   9    4   31 1
  10    5   19 1
  11    5    6 ar
  12    6    7 ar
  13    6    9 1
  14    7    8 ar
  15    7   32 1
  16    8   33 1
  17    9   18 ar
  18    9   10 ar
  19   10   11 ar
  20   10   19 1
  21   11   12 1
  22   11   16 ar
  23   12   13 1
  24   12   14 1
  25   12   15 1
  26   16   17 ar
  27   17   18 ar
  28   17   34 1
  29   18   35 1
  30   19   20 1
  31   20   21 1
  32   20   36 1
  33   20   37 1
  34   21   22 1
  35   21   38 1
  36   21   39 1
  37   22   23 1
  38   22   40 1
  39   22   41 1
  40   23   24 1
  41   23   42 1
  42   23   43 1
  43   24   25 1
  44   24   26 1
  45   24   27 1
