@<TRIPOS>MOLECULE
ZINC000002196784
33    34    1     0     0
SMALL
USER_CHARGES
@<TRIPOS>ATOM
1      C1     -0.2590    1.5535   -0.0368 C.2      1 ZINC000002196784   -0.1500
2      C2     -0.1680    0.2557   -0.1906 C.2      1 ZINC000002196784   -0.1900
3      C3     -1.4066   -0.5999   -0.1211 C.3      1 ZINC000002196784    0.1300
4      N4     -1.5152   -1.4018   -1.3423 N.pl3    1 ZINC000002196784   -0.6800
5      C5     -2.5731   -2.2649   -1.5063 C.2      1 ZINC000002196784    0.1900
6      C6     -2.7647   -3.0661   -2.6122 C.2      1 ZINC000002196784   -0.2400
7      C7     -1.8662   -3.0856   -3.7271 C.1      1 ZINC000002196784    0.2700
8      N8     -1.1534   -3.1011   -4.6115 N.1      1 ZINC000002196784   -0.4300
9      C9     -3.9109   -3.8555   -2.5467 C.2      1 ZINC000002196784    0.3800
10     N10    -4.2923   -4.7328   -3.5498 N.pl3    1 ZINC000002196784   -0.8200
11     C11    -4.6249   -3.6759   -1.3857 C.2      1 ZINC000002196784   -0.4500
12     C12    -5.8199   -4.3452   -1.0595 C.2      1 ZINC000002196784    0.4800
13     O13    -6.2367   -5.2355   -1.7811 O.2      1 ZINC000002196784   -0.4900
14     C14    -6.5697   -3.9685    0.1587 C.ar     1 ZINC000002196784   -0.1600
15     C15    -6.4885   -2.6669    0.6567 C.ar     1 ZINC000002196784   -0.0600
16     C16    -7.1897   -2.3209    1.7921 C.ar     1 ZINC000002196784   -0.1600
17     C17    -7.9745   -3.2629    2.4391 C.ar     1 ZINC000002196784    0.1200
18     F18    -8.6597   -2.9187    3.5514 F        1 ZINC000002196784   -0.1300
19     C19    -8.0590   -4.5568    1.9484 C.ar     1 ZINC000002196784   -0.1600
20     C20    -7.3656   -4.9119    0.8110 C.ar     1 ZINC000002196784   -0.0400
21     S21    -3.8202   -2.4935   -0.3664 S.3      1 ZINC000002196784    0.2500
22     H22     0.6287    2.1667   -0.0865 H        1 ZINC000002196784    0.1100
23     H23    -1.2222    2.0107    0.1353 H        1 ZINC000002196784    0.1000
24     H24     0.7946   -0.2010   -0.3671 H        1 ZINC000002196784    0.1200
25     H25    -1.3436   -1.2610    0.7432 H        1 ZINC000002196784    0.0900
26     H26    -2.2847    0.0389   -0.0267 H        1 ZINC000002196784    0.0800
27     H27    -0.8409   -1.3240   -2.0352 H        1 ZINC000002196784    0.4100
28     H28    -3.7504   -4.8203   -4.3496 H        1 ZINC000002196784    0.4000
29     H29    -5.1011   -5.2594   -3.4520 H        1 ZINC000002196784    0.4200
30     H30    -5.8771   -1.9324    0.1535 H        1 ZINC000002196784    0.1400
31     H31    -7.1272   -1.3142    2.1784 H        1 ZINC000002196784    0.1400
32     H32    -8.6720   -5.2868    2.4560 H        1 ZINC000002196784    0.1400
33     H33    -7.4321   -5.9201    0.4295 H        1 ZINC000002196784    0.1400
@<TRIPOS>BOND
1     1     2     2
2     1     22    1
3     1     23    1
4     2     3     1
5     2     24    1
6     3     4     1
7     3     25    1
8     3     26    1
9     4     5     1
10    4     27    1
11    5     21    1
12    5     6     2
13    6     7     1
14    6     9     1
15    7     8     3
16    9     10    1
17    9     11    2
18    10    28    1
19    10    29    1
20    11    12    1
21    11    21    1
22    12    13    2
23    12    14    1
24    14    20    ar
25    14    15    ar
26    15    16    ar
27    15    30    1
28    16    17    ar
29    16    31    1
30    17    18    1
31    17    19    ar
32    19    20    ar
33    19    32    1
34    20    33    1
@<TRIPOS>SUBSTRUCTURE
1   ZINC000002196784 1     RESIDUE    1   A     ZIN   1
