@<TRIPOS>MOLECULE
ZINC000068014383
88    94    1     0     0
SMALL
USER_CHARGES
@<TRIPOS>ATOM
1      C1      1.6302    2.6378   -0.0289 C.3      1 ZINC000068014383    0.0200
2      O2      1.5263    1.2135    0.0222 O.3      1 ZINC000068014383   -0.3000
3      C3      2.0194    0.5200   -1.0386 C.ar     1 ZINC000068014383    0.1300
4      C4      2.5953    1.1925   -2.1018 C.ar     1 ZINC000068014383   -0.1700
5      C5      3.1003    0.4890   -3.1847 C.ar     1 ZINC000068014383   -0.0800
6      C6      3.0319   -0.8881   -3.2058 C.ar     1 ZINC000068014383   -0.1300
7      C7      2.4530   -1.5666   -2.1428 C.ar     1 ZINC000068014383   -0.1600
8      C8      1.9525   -0.8702   -1.0576 C.ar     1 ZINC000068014383    0.1200
9      O9      1.3867   -1.5406   -0.0183 O.3      1 ZINC000068014383   -0.3000
10     C10     1.3422   -2.9657   -0.1129 C.3      1 ZINC000068014383    0.0200
11     C11     3.5766   -1.6903   -4.3583 C.3      1 ZINC000068014383    0.0500
12     N12     3.7385   -0.8452   -5.5447 N.4      1 ZINC000068014383   -0.3800
13     H13     2.8328   -0.5391   -5.8673 H        1 ZINC000068014383    0.4300
14     C14     4.4054   -1.6108   -6.6063 C.3      1 ZINC000068014383   -0.0100
15     C15     3.5004   -2.7616   -7.0507 C.3      1 ZINC000068014383   -0.1000
16     C16     4.1846   -3.5470   -8.1397 C.ar     1 ZINC000068014383   -0.0900
17     C17     4.0039   -3.1922   -9.4640 C.ar     1 ZINC000068014383   -0.0900
18     C18     4.6296   -3.9100  -10.4643 C.ar     1 ZINC000068014383   -0.1000
19     C19     5.4408   -4.9890  -10.1392 C.ar     1 ZINC000068014383    0.1600
20     N20     6.0777   -5.7193  -11.1523 N.pl3    1 ZINC000068014383   -0.1600
21     N21     6.0024   -5.4961  -12.4198 N.2      1 ZINC000068014383    0.0200
22     N22     6.7123   -6.3589  -13.0557 N.2      1 ZINC000068014383   -0.3000
23     C23     7.2905   -7.1982  -12.1895 C.2      1 ZINC000068014383    0.2700
24     C24     8.1858   -8.3308  -12.5282 C.ar     1 ZINC000068014383   -0.0600
25     C25     8.8047   -9.0592  -11.5145 C.ar     1 ZINC000068014383   -0.1100
26     C26     9.6388  -10.1153  -11.8335 C.ar     1 ZINC000068014383    0.0900
27     O27    10.2430  -10.8263  -10.8434 O.3      1 ZINC000068014383   -0.3000
28     C28     9.9706  -10.4267   -9.4987 C.3      1 ZINC000068014383    0.0200
29     C29     9.8611  -10.4527  -13.1667 C.ar     1 ZINC000068014383    0.1600
30     O30    10.6812  -11.4922  -13.4753 O.3      1 ZINC000068014383   -0.2900
31     C31    10.8651  -11.7839  -14.8620 C.3      1 ZINC000068014383    0.0200
32     C32     9.2485   -9.7320  -14.1788 C.ar     1 ZINC000068014383   -0.1900
33     C33     8.4068   -8.6746  -13.8670 C.ar     1 ZINC000068014383    0.2000
34     N34     7.7885   -7.9480  -14.8873 N.am     1 ZINC000068014383   -0.6400
35     C35     8.4050   -7.7974  -16.0763 C.2      1 ZINC000068014383    0.5800
36     O36     9.4596   -8.3623  -16.2897 O.2      1 ZINC000068014383   -0.4800
37     C37     7.7970   -6.9436  -17.1229 C.2      1 ZINC000068014383    0.0900
38     C38     8.4386   -6.8163  -18.3106 C.2      1 ZINC000068014383   -0.2100
39     C39     7.8354   -5.9517  -19.3389 C.2      1 ZINC000068014383    0.4200
40     O40     8.2199   -5.9588  -20.4950 O.2      1 ZINC000068014383   -0.4400
41     C41     6.7362   -5.0759  -18.8852 C.ar     1 ZINC000068014383   -0.2200
42     C42     6.2557   -4.0384  -19.6815 C.ar     1 ZINC000068014383   -0.0300
43     C43     5.2325   -3.2425  -19.2143 C.ar     1 ZINC000068014383   -0.1500
44     C44     4.6860   -3.4723  -17.9596 C.ar     1 ZINC000068014383   -0.0600
45     C45     5.1516   -4.4965  -17.1637 C.ar     1 ZINC000068014383   -0.1400
46     C46     6.1806   -5.3158  -17.6162 C.ar     1 ZINC000068014383    0.1500
47     O47     6.6336   -6.3338  -16.8578 O.3      1 ZINC000068014383   -0.2200
48     N48     6.9222   -6.8277  -10.9764 N.2      1 ZINC000068014383   -0.2900
49     C49     5.6203   -5.3428   -8.8087 C.ar     1 ZINC000068014383   -0.0900
50     C50     4.9964   -4.6176   -7.8125 C.ar     1 ZINC000068014383   -0.0900
51     C51     4.5564    0.3250   -5.1910 C.3      1 ZINC000068014383    0.0000
52     C52     3.7159    1.2625   -4.3231 C.3      1 ZINC000068014383   -0.1000
53     H53     2.6796    2.9231   -0.1031 H        1 ZINC000068014383    0.0600
54     H54     1.0900    3.0105   -0.8992 H        1 ZINC000068014383    0.0600
55     H55     1.2003    3.0662    0.8765 H        1 ZINC000068014383    0.1100
56     H56     2.6515    2.2710   -2.0883 H        1 ZINC000068014383    0.1500
57     H57     2.3971   -2.6450   -2.1609 H        1 ZINC000068014383    0.1500
58     H58     0.8674   -3.3744    0.7791 H        1 ZINC000068014383    0.1100
59     H59     0.7688   -3.2537   -0.9940 H        1 ZINC000068014383    0.0600
60     H60     2.3564   -3.3562   -0.1959 H        1 ZINC000068014383    0.0600
61     H61     4.5442   -2.1079   -4.0799 H        1 ZINC000068014383    0.1400
62     H62     2.8877   -2.5033   -4.5875 H        1 ZINC000068014383    0.1400
63     H63     4.6050   -0.9569   -7.4552 H        1 ZINC000068014383    0.1400
64     H64     5.3455   -2.0129   -6.2285 H        1 ZINC000068014383    0.1300
65     H65     3.3008   -3.4155   -6.2017 H        1 ZINC000068014383    0.1000
66     H66     2.5604   -2.3595   -7.4285 H        1 ZINC000068014383    0.1000
67     H67     3.3725   -2.3530   -9.7162 H        1 ZINC000068014383    0.1400
68     H68     4.4878   -3.6326  -11.4984 H        1 ZINC000068014383    0.1500
69     H69     8.6335   -8.7991  -10.4804 H        1 ZINC000068014383    0.1500
70     H70    10.2898   -9.3945   -9.3547 H        1 ZINC000068014383    0.0600
71     H71     8.9008  -10.5064   -9.3056 H        1 ZINC000068014383    0.0600
72     H72    10.5133  -11.0743   -8.8102 H        1 ZINC000068014383    0.1100
73     H73     9.9028  -12.0260  -15.3131 H        1 ZINC000068014383    0.0600
74     H74    11.2926  -10.9150  -15.3625 H        1 ZINC000068014383    0.0700
75     H75    11.5402  -12.6331  -14.9683 H        1 ZINC000068014383    0.1100
76     H76     9.4234   -9.9961  -15.2113 H        1 ZINC000068014383    0.1700
77     H77     6.9154   -7.5517  -14.7400 H        1 ZINC000068014383    0.4300
78     H78     9.3673   -7.3349  -18.4975 H        1 ZINC000068014383    0.1800
79     H79     6.6823   -3.8591  -20.6573 H        1 ZINC000068014383    0.1400
80     H80     4.8547   -2.4370  -19.8266 H        1 ZINC000068014383    0.1400
81     H81     3.8863   -2.8405  -17.6024 H        1 ZINC000068014383    0.1400
82     H82     4.7177   -4.6630  -16.1888 H        1 ZINC000068014383    0.1500
83     H83     6.2504   -6.1818   -8.5527 H        1 ZINC000068014383    0.1500
84     H84     5.1359   -4.8921   -6.7773 H        1 ZINC000068014383    0.1400
85     H85     5.4363    0.0019   -4.6348 H        1 ZINC000068014383    0.1300
86     H86     4.8641    0.8442   -6.0987 H        1 ZINC000068014383    0.1400
87     H87     2.9258    1.7061   -4.9290 H        1 ZINC000068014383    0.1000
88     H88     4.3512    2.0525   -3.9227 H        1 ZINC000068014383    0.1200
@<TRIPOS>BOND
1     1     2     1
2     1     53    1
3     1     54    1
4     1     55    1
5     2     3     1
6     3     8     ar
7     3     4     ar
8     4     5     ar
9     4     56    1
10    5     52    1
11    5     6     ar
12    6     7     ar
13    6     11    1
14    7     8     ar
15    7     57    1
16    8     9     1
17    9     10    1
18    10    58    1
19    10    59    1
20    10    60    1
21    11    12    1
22    11    61    1
23    11    62    1
24    12    13    1
25    12    14    1
26    12    51    1
27    14    15    1
28    14    63    1
29    14    64    1
30    15    16    1
31    15    65    1
32    15    66    1
33    16    50    ar
34    16    17    ar
35    17    18    ar
36    17    67    1
37    18    19    ar
38    18    68    1
39    19    20    1
40    19    49    ar
41    20    48    1
42    20    21    1
43    21    22    2
44    22    23    1
45    23    24    1
46    23    48    2
47    24    33    ar
48    24    25    ar
49    25    26    ar
50    25    69    1
51    26    27    1
52    26    29    ar
53    27    28    1
54    28    70    1
55    28    71    1
56    28    72    1
57    29    30    1
58    29    32    ar
59    30    31    1
60    31    73    1
61    31    74    1
62    31    75    1
63    32    33    ar
64    32    76    1
65    33    34    1
66    34    35    am
67    34    77    1
68    35    36    2
69    35    37    1
70    37    47    1
71    37    38    2
72    38    39    1
73    38    78    1
74    39    40    2
75    39    41    1
76    41    46    ar
77    41    42    ar
78    42    43    ar
79    42    79    1
80    43    44    ar
81    43    80    1
82    44    45    ar
83    44    81    1
84    45    46    ar
85    45    82    1
86    46    47    1
87    49    50    ar
88    49    83    1
89    50    84    1
90    51    52    1
91    51    85    1
92    51    86    1
93    52    87    1
94    52    88    1
@<TRIPOS>SUBSTRUCTURE
1   ZINC000068014383 1     RESIDUE    1   A     ZIN   1
