@<TRIPOS>MOLECULE
ZINC000011524418
50    51    1     0     0
SMALL
USER_CHARGES
@<TRIPOS>ATOM
1      C1     -0.0173    1.4248    0.0099 C.3      1 ZINC000011524418    0.0200
2      O2      0.0021   -0.0041    0.0020 O.3      1 ZINC000011524418   -0.3100
3      C3     -1.2011   -0.6379    0.0101 C.ar     1 ZINC000011524418    0.1000
4      C4     -2.3684    0.0982    0.0195 C.ar     1 ZINC000011524418   -0.1700
5      C5     -3.6061   -0.5584    0.0278 C.ar     1 ZINC000011524418   -0.0500
6      C6     -4.8515    0.2183    0.0373 C.2      1 ZINC000011524418   -0.0100
7      C7     -6.0479   -0.4191    0.0454 C.2      1 ZINC000011524418   -0.2300
8      C8     -7.2424    0.3259    0.0545 C.2      1 ZINC000011524418    0.3700
9      O9     -7.2010    1.5399    0.0552 O.2      1 ZINC000011524418   -0.4200
10     C10    -8.5723   -0.3828    0.0635 C.3      1 ZINC000011524418   -0.2200
11     C11    -9.6837    0.6350    0.0722 C.2      1 ZINC000011524418    0.3800
12     O12    -9.4213    1.8210    0.0713 O.2      1 ZINC000011524418   -0.4300
13     C13   -11.0262    0.2111    0.0815 C.2      1 ZINC000011524418   -0.2600
14     C14   -12.0260    1.1266    0.0894 C.2      1 ZINC000011524418    0.0200
15     C15   -13.4257    0.6848    0.0990 C.ar     1 ZINC000011524418   -0.0700
16     C16   -13.7307   -0.6820    0.1059 C.ar     1 ZINC000011524418   -0.1100
17     C17   -15.0451   -1.0935    0.1155 C.ar     1 ZINC000011524418   -0.0800
18     C18   -16.0700   -0.1565    0.1182 C.ar     1 ZINC000011524418    0.1100
19     O19   -17.3638   -0.5687    0.1281 O.3      1 ZINC000011524418   -0.7000
20     S20   -17.9448   -0.7511    1.5229 S.o2     1 ZINC000011524418    2.7500
21     O21   -19.1700   -1.5201    1.3697 O.co2    1 ZINC000011524418   -1.0600
22     O22   -16.9461   -1.4650    2.3033 O.co2    1 ZINC000011524418   -1.0800
23     O23   -18.1986    0.5812    2.0491 O.co2    1 ZINC000011524418   -1.0600
24     C24   -15.7746    1.2072    0.1114 C.ar     1 ZINC000011524418    0.1200
25     O25   -16.7819    2.1208    0.1146 O.3      1 ZINC000011524418   -0.2800
26     C26   -16.4071    3.4998    0.1071 C.3      1 ZINC000011524418    0.0300
27     C27   -14.4607    1.6291    0.1072 C.ar     1 ZINC000011524418   -0.1700
28     C28    -3.6513   -1.9581    0.0265 C.ar     1 ZINC000011524418   -0.1200
29     C29    -2.4809   -2.6842    0.0171 C.ar     1 ZINC000011524418   -0.1100
30     C30    -1.2549   -2.0321    0.0031 C.ar     1 ZINC000011524418    0.0900
31     O31    -0.1046   -2.7537   -0.0065 O.3      1 ZINC000011524418   -0.4900
32     H32     1.0053    1.8021    0.0021 H        1 ZINC000011524418    0.1000
33     H33    -0.5445    1.7859   -0.8732 H        1 ZINC000011524418    0.0600
34     H34    -0.5275    1.7763    0.9067 H        1 ZINC000011524418    0.0600
35     H35    -2.3279    1.1774    0.0208 H        1 ZINC000011524418    0.1400
36     H36    -4.8147    1.2977    0.0380 H        1 ZINC000011524418    0.1400
37     H37    -6.0846   -1.4985    0.0448 H        1 ZINC000011524418    0.1400
38     H38    -8.6577   -1.0064   -0.8264 H        1 ZINC000011524418    0.1300
39     H39    -8.6450   -1.0078    0.9535 H        1 ZINC000011524418    0.1300
40     H40   -11.2596   -0.8433    0.0823 H        1 ZINC000011524418    0.1400
41     H41   -11.7926    2.1811    0.0886 H        1 ZINC000011524418    0.1300
42     H42   -12.9357   -1.4130    0.1035 H        1 ZINC000011524418    0.1400
43     H43   -15.2792   -2.1478    0.1204 H        1 ZINC000011524418    0.1500
44     H44   -17.3034    4.1200    0.1107 H        1 ZINC000011524418    0.1000
45     H45   -15.8102    3.7188    0.9925 H        1 ZINC000011524418    0.0600
46     H46   -15.8217    3.7123   -0.7874 H        1 ZINC000011524418    0.0500
47     H47   -14.2309    2.6844    0.1022 H        1 ZINC000011524418    0.1400
48     H48    -4.6033   -2.4679    0.0333 H        1 ZINC000011524418    0.1400
49     H49    -2.5168   -3.7636    0.0161 H        1 ZINC000011524418    0.1400
50     H50     0.2197   -2.9650   -0.8927 H        1 ZINC000011524418    0.3900
@<TRIPOS>BOND
1     1     2     1
2     1     32    1
3     1     33    1
4     1     34    1
5     2     3     1
6     3     30    ar
7     3     4     ar
8     4     5     ar
9     4     35    1
10    5     6     1
11    5     28    ar
12    6     7     2
13    6     36    1
14    7     8     1
15    7     37    1
16    8     9     2
17    8     10    1
18    10    11    1
19    10    38    1
20    10    39    1
21    11    12    2
22    11    13    1
23    13    14    2
24    13    40    1
25    14    15    1
26    14    41    1
27    15    27    ar
28    15    16    ar
29    16    17    ar
30    16    42    1
31    17    18    ar
32    17    43    1
33    18    19    1
34    18    24    ar
35    19    20    1
36    20    21    ar
37    20    22    ar
38    20    23    ar
39    24    25    1
40    24    27    ar
41    25    26    1
42    26    44    1
43    26    45    1
44    26    46    1
45    27    47    1
46    28    29    ar
47    28    48    1
48    29    30    ar
49    29    49    1
50    30    31    1
51    31    50    1
@<TRIPOS>SUBSTRUCTURE
1   ZINC000011524418 1     RESIDUE    1   A     ZIN   1
