@<TRIPOS>MOLECULE
ZINC000001687505
54    55    1     0     0
SMALL
USER_CHARGES
@<TRIPOS>ATOM
1      C1     -2.2636    1.5618    0.5933 C.3      1 ZINC000001687505   -0.1900
2      C2     -2.1843    0.0739    0.9407 C.3      1 ZINC000001687505   -0.0100
3      N3     -1.4380   -0.6346   -0.1077 N.4      1 ZINC000001687505   -0.3900
4      H4     -1.8633   -0.4529   -1.0045 H        1 ZINC000001687505    0.4200
5      C5     -0.0465   -0.1640   -0.1214 C.3      1 ZINC000001687505   -0.0200
6      C6      0.6887   -0.7805   -1.3132 C.3      1 ZINC000001687505   -0.1900
7      C7     -1.4641   -2.0782    0.1632 C.3      1 ZINC000001687505   -0.0200
8      C8     -2.9004   -2.5928    0.0482 C.3      1 ZINC000001687505   -0.1500
9      C9     -2.9124   -4.1134    0.2173 C.3      1 ZINC000001687505   -0.1300
10     C10    -4.3486   -4.6280    0.1023 C.3      1 ZINC000001687505    0.1300
11     H11    -4.9803   -4.1057    0.8209 H        1 ZINC000001687505    0.1000
12     C12    -4.3773   -6.1295    0.3947 C.3      1 ZINC000001687505   -0.1800
13     N13    -4.8474   -4.3849   -1.2536 N.pl3    1 ZINC000001687505   -0.6800
14     C14    -6.2102   -4.2681   -1.4804 C.ar     1 ZINC000001687505    0.3600
15     C15    -6.7161   -4.0392   -2.7816 C.ar     1 ZINC000001687505   -0.1700
16     C16    -5.8586   -3.9228   -3.8851 C.ar     1 ZINC000001687505   -0.0200
17     C17    -6.3758   -3.7031   -5.1245 C.ar     1 ZINC000001687505   -0.1900
18     C18    -7.7565   -3.5908   -5.3136 C.ar     1 ZINC000001687505    0.2200
19     O19    -8.2476   -3.3714   -6.5609 O.3      1 ZINC000001687505   -0.2900
20     C20    -7.2975   -3.2673   -7.6232 C.3      1 ZINC000001687505    0.0100
21     C21    -8.6238   -3.7004   -4.2506 C.ar     1 ZINC000001687505   -0.2000
22     C22    -8.1161   -3.9277   -2.9612 C.ar     1 ZINC000001687505    0.2200
23     N23    -8.9360   -4.0391   -1.9094 N.ar     1 ZINC000001687505   -0.5100
24     H24    -9.8932   -3.9609   -2.0458 H        1 ZINC000001687505    0.4500
25     C25    -8.4776   -4.2520   -0.6973 C.ar     1 ZINC000001687505    0.2400
26     C26    -7.1202   -4.3777   -0.4398 C.ar     1 ZINC000001687505   -0.2800
27     H27    -2.8173    2.0875    1.3712 H        1 ZINC000001687505    0.1100
28     H28    -1.2564    1.9728    0.5233 H        1 ZINC000001687505    0.0800
29     H29    -2.7735    1.6852   -0.3622 H        1 ZINC000001687505    0.0800
30     H30    -1.6744   -0.0495    1.8961 H        1 ZINC000001687505    0.1300
31     H31    -3.1914   -0.3370    1.0106 H        1 ZINC000001687505    0.1300
32     H32    -0.0312    0.9225   -0.2075 H        1 ZINC000001687505    0.1400
33     H33     0.4470   -0.4621    0.8037 H        1 ZINC000001687505    0.1300
34     H34     0.6390   -1.8674   -1.2480 H        1 ZINC000001687505    0.0800
35     H35     0.2195   -0.4502   -2.2399 H        1 ZINC000001687505    0.0800
36     H36     1.7314   -0.4631   -1.3006 H        1 ZINC000001687505    0.1100
37     H37    -0.8339   -2.5951   -0.5605 H        1 ZINC000001687505    0.1300
38     H38    -1.0904   -2.2658    1.1698 H        1 ZINC000001687505    0.1300
39     H39    -3.5133   -2.1359    0.8251 H        1 ZINC000001687505    0.0900
40     H40    -3.3021   -2.3330   -0.9312 H        1 ZINC000001687505    0.0800
41     H41    -2.2994   -4.5702   -0.5597 H        1 ZINC000001687505    0.0900
42     H42    -2.5107   -4.3732    1.1967 H        1 ZINC000001687505    0.1100
43     H43    -3.7456   -6.6517   -0.3239 H        1 ZINC000001687505    0.0700
44     H44    -4.0063   -6.3104    1.4035 H        1 ZINC000001687505    0.0900
45     H45    -5.4006   -6.4961    0.3128 H        1 ZINC000001687505    0.0700
46     H46    -4.2242   -4.3056   -1.9927 H        1 ZINC000001687505    0.4100
47     H47    -4.7902   -4.0071   -3.7516 H        1 ZINC000001687505    0.1400
48     H48    -5.7120   -3.6141   -5.9718 H        1 ZINC000001687505    0.1600
49     H49    -6.6202   -2.4366   -7.4248 H        1 ZINC000001687505    0.0700
50     H50    -6.7265   -4.1932   -7.6920 H        1 ZINC000001687505    0.0700
51     H51    -7.8211   -3.0927   -8.5631 H        1 ZINC000001687505    0.1200
52     H52    -9.6887   -3.6118   -4.4072 H        1 ZINC000001687505    0.1700
53     H53    -9.1771   -4.3349    0.1214 H        1 ZINC000001687505    0.2100
54     H54    -6.7733   -4.5529    0.5679 H        1 ZINC000001687505    0.1800
@<TRIPOS>BOND
1     1     2     1
2     1     27    1
3     1     28    1
4     1     29    1
5     2     3     1
6     2     30    1
7     2     31    1
8     3     4     1
9     3     5     1
10    3     7     1
11    5     6     1
12    5     32    1
13    5     33    1
14    6     34    1
15    6     35    1
16    6     36    1
17    7     8     1
18    7     37    1
19    7     38    1
20    8     9     1
21    8     39    1
22    8     40    1
23    9     10    1
24    9     41    1
25    9     42    1
26    10    11    1
27    10    12    1
28    10    13    1
29    12    43    1
30    12    44    1
31    12    45    1
32    13    14    1
33    13    46    1
34    14    26    ar
35    14    15    ar
36    15    22    ar
37    15    16    ar
38    16    17    ar
39    16    47    1
40    17    18    ar
41    17    48    1
42    18    19    1
43    18    21    ar
44    19    20    1
45    20    49    1
46    20    50    1
47    20    51    1
48    21    22    ar
49    21    52    1
50    22    23    ar
51    23    24    1
52    23    25    ar
53    25    26    ar
54    25    53    1
55    26    54    1
@<TRIPOS>SUBSTRUCTURE
1   ZINC000001687505 1     RESIDUE    1   A     ZIN   1
