@<TRIPOS>MOLECULE
ZINC000000596881
  39   41    0    0    0
SMALL
USER_CHARGES
NO_NAME
@<TRIPOS>ATOM
    1 Cl1       0.0021    -0.0041     0.0020 Cl     1 <0>      -0.0700
    2 C2       -0.0215     1.7317     0.0116 C.ar   1 <0>      -0.0300
    3 C3       -1.2286     2.4074     0.0325 C.ar   1 <0>      -0.1100
    4 C4       -1.2467     3.7894     0.0400 C.ar   1 <0>      -0.0900
    5 C5       -0.0590     4.4966     0.0262 C.ar   1 <0>      -0.0800
    6 C6       -0.0794     6.0034     0.0340 C.3    1 <0>       0.0900
    7 O7       -0.0663     6.4730     1.3835 O.3    1 <0>      -0.3600
    8 C8       -0.0840     7.8969     1.5036 C.3    1 <0>       0.1200
    9 H9       -0.6161     8.3265     0.6549 H      1 <0>       0.0900
   10 C10       1.3519     8.4247     1.5256 C.3    1 <0>       0.0900
   11 N11       1.9921     8.1525     0.2363 N.pl3  1 <0>      -0.4600
   12 C12       2.6940     7.0266    -0.1004 C.2    1 <0>      -0.0500
   13 C13       3.1056     7.1898    -1.3722 C.2    1 <0>      -0.0300
   14 N14       2.6669     8.3828    -1.8004 N.2    1 <0>      -0.4900
   15 C15       1.9948     8.9629    -0.8439 C.2    1 <0>       0.1800
   16 C16      -0.7813     8.2845     2.7821 C.ar   1 <0>      -0.0800
   17 C17      -0.8174     7.4014     3.8445 C.ar   1 <0>      -0.0600
   18 C18      -1.4572     7.7560     5.0175 C.ar   1 <0>      -0.1100
   19 C19      -2.0614     8.9955     5.1286 C.ar   1 <0>      -0.0200
   20 Cl20     -2.8644     9.4410     6.6019 Cl     1 <0>      -0.0500
   21 C21      -2.0253     9.8802     4.0656 C.ar   1 <0>      -0.1000
   22 C22      -1.3804     9.5268     2.8941 C.ar   1 <0>      -0.0200
   23 Cl23     -1.3340    10.6365     1.5599 Cl     1 <0>      -0.0500
   24 C24       1.1475     3.8220     0.0058 C.ar   1 <0>      -0.0800
   25 C25       1.1670     2.4400     0.0040 C.ar   1 <0>      -0.1100
   26 H26      -2.1566     1.8550     0.0425 H      1 <0>       0.1400
   27 H27      -2.1890     4.3169     0.0563 H      1 <0>       0.1300
   28 H28       0.7980     6.3814    -0.4908 H      1 <0>       0.0800
   29 H29      -0.9817     6.3571    -0.4651 H      1 <0>       0.0600
   30 H30       1.3412     9.4996     1.7062 H      1 <0>       0.1100
   31 H31       1.9094     7.9284     2.3200 H      1 <0>       0.1100
   32 H32       2.8820     6.1718     0.5325 H      1 <0>       0.1700
   33 H33       3.6870     6.4838    -1.9466 H      1 <0>       0.1700
   34 H34       1.5245     9.9332    -0.9041 H      1 <0>       0.2000
   35 H35      -0.3458     6.4336     3.7583 H      1 <0>       0.1500
   36 H36      -1.4857     7.0652     5.8472 H      1 <0>       0.1400
   37 H37      -2.4968    10.8480     4.1518 H      1 <0>       0.1500
   38 H38       2.0751     4.3751    -0.0050 H      1 <0>       0.1300
   39 H39       2.1096     1.9132    -0.0116 H      1 <0>       0.1400
@<TRIPOS>BOND
   1    1    2 1
   2    2   25 ar
   3    2    3 ar
   4    3    4 ar
   5    3   26 1
   6    4    5 ar
   7    4   27 1
   8    5    6 1
   9    5   24 ar
  10    6    7 1
  11    6   28 1
  12    6   29 1
  13    7    8 1
  14    8    9 1
  15    8   10 1
  16    8   16 1
  17   10   11 1
  18   10   30 1
  19   10   31 1
  20   11   15 1
  21   11   12 1
  22   12   13 2
  23   12   32 1
  24   13   14 1
  25   13   33 1
  26   14   15 2
  27   15   34 1
  28   16   22 ar
  29   16   17 ar
  30   17   18 ar
  31   17   35 1
  32   18   19 ar
  33   18   36 1
  34   19   20 1
  35   19   21 ar
  36   21   22 ar
  37   21   37 1
  38   22   23 1
  39   24   25 ar
  40   24   38 1
  41   25   39 1
