@<TRIPOS>MOLECULE
ZINC000005934751
  19   20    0    0    0
SMALL
USER_CHARGES
NO_NAME
@<TRIPOS>ATOM
    1 O1        0.0021    -0.0041     0.0020 O.2    1 <0>      -0.4300
    2 C2       -0.0143     1.2041     0.0087 C.2    1 <0>       0.4900
    3 C3       -1.3172     1.9780     0.0317 C.3    1 <0>      -0.1700
    4 C4       -1.3057     2.8623     1.2827 C.3    1 <0>      -0.0800
    5 C5        0.0451     3.5158     1.4321 C.ar   1 <0>      -0.1600
    6 C6        0.1454     4.6474     2.2258 C.ar   1 <0>      -0.0800
    7 C7        1.3635     5.2752     2.3968 C.ar   1 <0>      -0.1400
    8 C8        2.4924     4.7742     1.7756 C.ar   1 <0>      -0.0900
    9 C9        2.3989     3.6491     0.9822 C.ar   1 <0>      -0.1300
   10 C10       1.1723     3.0168     0.8041 C.ar   1 <0>       0.1200
   11 O11       1.1244     1.9231     0.0017 O.3    1 <0>      -0.3000
   12 H12      -1.3942     2.5997    -0.8603 H      1 <0>       0.1100
   13 H13      -2.1581     1.2860     0.0753 H      1 <0>       0.1200
   14 H14      -2.0723     3.6316     1.1899 H      1 <0>       0.1000
   15 H15      -1.5116     2.2505     2.1610 H      1 <0>       0.0900
   16 H16      -0.7344     5.0408     2.7131 H      1 <0>       0.1300
   17 H17       1.4341     6.1576     3.0155 H      1 <0>       0.1300
   18 H18       3.4459     5.2629     1.9108 H      1 <0>       0.1400
   19 H19       3.2811     3.2581     0.4972 H      1 <0>       0.1400
@<TRIPOS>BOND
   1    1    2 2
   2    2   11 1
   3    2    3 1
   4    3    4 1
   5    3   12 1
   6    3   13 1
   7    4    5 1
   8    4   14 1
   9    4   15 1
  10    5   10 ar
  11    5    6 ar
  12    6    7 ar
  13    6   16 1
  14    7    8 ar
  15    7   17 1
  16    8    9 ar
  17    8   18 1
  18    9   10 ar
  19    9   19 1
  20   10   11 1
