@<TRIPOS>MOLECULE
ZINC000008589506
51    54    1     0     0
SMALL
USER_CHARGES
@<TRIPOS>ATOM
1      C1      0.0841    1.2504    0.9078 C.3      1 ZINC000008589506   -0.1500
2      C2     -0.0064    0.0188    0.0046 C.3      1 ZINC000008589506   -0.0800
3      C3     -1.4179   -0.5089    0.0147 C.ar     1 ZINC000008589506   -0.1000
4      C4     -1.7960   -1.4497    0.9550 C.ar     1 ZINC000008589506   -0.1000
5      C5     -3.0887   -1.9357    0.9667 C.ar     1 ZINC000008589506   -0.1400
6      C6     -4.0095   -1.4782    0.0329 C.ar     1 ZINC000008589506    0.1500
7      N7     -5.3193   -1.9679    0.0423 N.am     1 ZINC000008589506   -0.6700
8      C8     -5.9959   -2.1046   -1.1153 C.2      1 ZINC000008589506    0.5700
9      O9     -5.4374   -1.8943   -2.1742 O.2      1 ZINC000008589506   -0.5200
10     C10    -7.4180   -2.5106   -1.0971 C.ar     1 ZINC000008589506   -0.1000
11     C11    -8.0593   -2.7463    0.1244 C.ar     1 ZINC000008589506   -0.1400
12     C12    -9.3710   -3.1213    0.1548 C.ar     1 ZINC000008589506   -0.0400
13     C13   -10.0814   -3.2719   -1.0393 C.ar     1 ZINC000008589506   -0.1200
14     C14    -9.4474   -3.0377   -2.2728 C.ar     1 ZINC000008589506    0.2000
15     C15    -8.1136   -2.6508   -2.2946 C.ar     1 ZINC000008589506   -0.1200
16     N16   -10.1597   -3.1888   -3.4459 N.am     1 ZINC000008589506   -0.6500
17     C17   -11.4522   -3.5567   -3.4318 C.2      1 ZINC000008589506    0.6000
18     O18   -12.0456   -3.6789   -4.4901 O.2      1 ZINC000008589506   -0.5800
19     C19   -12.1383   -3.8047   -2.2308 C.2      1 ZINC000008589506   -0.9600
20     S20   -13.8331   -4.2852   -2.2703 S.o2     1 ZINC000008589506    2.6200
21     O21   -13.9306   -5.3340   -3.2240 O.2      1 ZINC000008589506   -0.9600
22     O22   -14.2422   -4.4250   -0.9167 O.2      1 ZINC000008589506   -0.9300
23     C23   -14.7446   -2.9283   -2.9280 C.ar     1 ZINC000008589506   -0.6500
24     C24   -15.2465   -1.9577   -2.0811 C.ar     1 ZINC000008589506   -0.0100
25     C25   -15.9617   -0.8932   -2.5964 C.ar     1 ZINC000008589506   -0.1400
26     C26   -16.1752   -0.7989   -3.9601 C.ar     1 ZINC000008589506    0.0100
27     Cl27  -17.0729    0.5382   -4.6081 Cl       1 ZINC000008589506   -0.0800
28     C28   -15.6727   -1.7706   -4.8072 C.ar     1 ZINC000008589506   -0.1400
29     C29   -14.9529   -2.8317   -4.2913 C.ar     1 ZINC000008589506    0.0100
30     C30   -11.4956   -3.6745   -1.0337 C.2      1 ZINC000008589506    0.3900
31     O31   -12.1443   -3.9102    0.1301 O.3      1 ZINC000008589506   -0.5900
32     C32    -3.6266   -0.5329   -0.9099 C.ar     1 ZINC000008589506   -0.1200
33     C33    -2.3338   -0.0471   -0.9129 C.ar     1 ZINC000008589506   -0.1000
34     H34     1.1050    1.6321    0.9005 H        1 ZINC000008589506    0.0600
35     H35    -0.5944    2.0206    0.5409 H        1 ZINC000008589506    0.0600
36     H36    -0.1939    0.9760    1.9253 H        1 ZINC000008589506    0.0600
37     H37     0.2716    0.2932   -1.0130 H        1 ZINC000008589506    0.0700
38     H38     0.6721   -0.7514    0.3714 H        1 ZINC000008589506    0.0700
39     H39    -1.0796   -1.8051    1.6808 H        1 ZINC000008589506    0.1200
40     H40    -3.3832   -2.6710    1.7009 H        1 ZINC000008589506    0.1300
41     H41    -5.7409   -2.2091    0.8819 H        1 ZINC000008589506    0.4100
42     H42    -7.5126   -2.6310    1.0486 H        1 ZINC000008589506    0.1200
43     H43    -9.8597   -3.3020    1.1008 H        1 ZINC000008589506    0.1500
44     H44    -7.6164   -2.4683   -3.2359 H        1 ZINC000008589506    0.1400
45     H45    -9.7197   -3.0262   -4.2950 H        1 ZINC000008589506    0.4000
46     H46   -15.0800   -2.0316   -1.0166 H        1 ZINC000008589506    0.1500
47     H47   -16.3540   -0.1352   -1.9347 H        1 ZINC000008589506    0.1400
48     H48   -15.8394   -1.6977   -5.8718 H        1 ZINC000008589506    0.1400
49     H49   -14.5603   -3.5901   -4.9524 H        1 ZINC000008589506    0.1600
50     H50    -4.3401   -0.1753   -1.6376 H        1 ZINC000008589506    0.1400
51     H51    -2.0355    0.6882   -1.6455 H        1 ZINC000008589506    0.1200
@<TRIPOS>BOND
1     1     2     1
2     1     34    1
3     1     35    1
4     1     36    1
5     2     3     1
6     2     37    1
7     2     38    1
8     3     33    ar
9     3     4     ar
10    4     5     ar
11    4     39    1
12    5     6     ar
13    5     40    1
14    6     7     1
15    6     32    ar
16    7     8     am
17    7     41    1
18    8     9     2
19    8     10    1
20    10    15    ar
21    10    11    ar
22    11    12    ar
23    11    42    1
24    12    13    ar
25    12    43    1
26    13    30    1
27    13    14    ar
28    14    15    ar
29    14    16    1
30    15    44    1
31    16    17    am
32    16    45    1
33    17    18    2
34    17    19    1
35    19    20    1
36    19    30    2
37    20    21    2
38    20    22    2
39    20    23    1
40    23    29    ar
41    23    24    ar
42    24    25    ar
43    24    46    1
44    25    26    ar
45    25    47    1
46    26    27    1
47    26    28    ar
48    28    29    ar
49    28    48    1
50    29    49    1
51    30    31    1
52    32    33    ar
53    32    50    1
54    33    51    1
@<TRIPOS>SUBSTRUCTURE
1   ZINC000008589506 1     RESIDUE    1   A     ZIN   1
