@<TRIPOS>MOLECULE
ZINC000095576342
  43   46    0    0    0
SMALL
USER_CHARGES
NO_NAME
@<TRIPOS>ATOM
    1 O1       -0.3095     0.1916     1.1148 O.2    1 <0>      -0.5500
    2 C2       -0.0468     1.2789     0.6383 C.2    1 <0>       0.7100
    3 N3        1.2008     1.7777     0.7448 N.am   1 <0>      -0.6800
    4 C4        2.1686     1.0895     1.4850 C.ar   1 <0>       0.1600
    5 C5        3.1175     1.7937     2.2145 C.ar   1 <0>      -0.1400
    6 C6        4.0711     1.1115     2.9444 C.ar   1 <0>      -0.1000
    7 C7        4.0817    -0.2712     2.9493 C.ar   1 <0>      -0.1300
    8 C8        3.1385    -0.9754     2.2235 C.ar   1 <0>      -0.1000
    9 C9        2.1787    -0.2991     1.4962 C.ar   1 <0>      -0.1200
   10 N10      -1.0017     1.9829    -0.0012 N.am   1 <0>      -0.6800
   11 C11      -2.3176     1.5073    -0.0347 C.ar   1 <0>       0.1800
   12 C12      -2.5627     0.1402    -0.1023 C.ar   1 <0>      -0.0900
   13 C13      -3.8622    -0.3309    -0.1352 C.ar   1 <0>      -0.1000
   14 C14      -4.9245     0.5488    -0.0984 C.ar   1 <0>      -0.0600
   15 C15      -4.6908     1.9231    -0.0251 C.ar   1 <0>      -0.1300
   16 C16      -3.3762     2.3956     0.0052 C.ar   1 <0>      -0.1100
   17 C17      -3.4657     3.8968     0.0546 C.3    1 <0>       0.1700
   18 H18      -3.0680     4.3328    -0.8618 H      1 <0>       0.1000
   19 C19      -2.7270     4.4520     1.2760 C.3    1 <0>      -0.1200
   20 C20      -3.0901     5.9308     1.4414 C.3    1 <0>      -0.1200
   21 C21      -4.5855     6.0840     1.7210 C.3    1 <0>      -0.1400
   22 C22      -5.3919     5.5587     0.5242 C.3    1 <0>       0.1400
   23 N23      -4.8999     4.2106     0.1961 N.am   1 <0>      -0.6100
   24 C24      -5.6024     3.0844     0.0342 C.2    1 <0>       0.5600
   25 O25      -6.8147     3.0220    -0.0290 O.2    1 <0>      -0.5200
   26 H26       1.4278     2.6137     0.3084 H      1 <0>       0.4100
   27 H27       3.1100     2.8737     2.2108 H      1 <0>       0.1200
   28 H28       4.8096     1.6587     3.5116 H      1 <0>       0.1300
   29 H29       4.8285    -0.8023     3.5208 H      1 <0>       0.1200
   30 H30       3.1497    -2.0553     2.2291 H      1 <0>       0.1300
   31 H31       1.4422    -0.8496     0.9298 H      1 <0>       0.1400
   32 H32      -0.7769     2.8191    -0.4383 H      1 <0>       0.4100
   33 H33      -1.7366    -0.5549    -0.1294 H      1 <0>       0.1500
   34 H34      -4.0468    -1.3936    -0.1905 H      1 <0>       0.1400
   35 H35      -5.9370     0.1741    -0.1266 H      1 <0>       0.1400
   36 H36      -3.0273     3.9001     2.1667 H      1 <0>       0.0700
   37 H37      -1.6515     4.3541     1.1282 H      1 <0>       0.0800
   38 H38      -2.5231     6.3506     2.2723 H      1 <0>       0.0700
   39 H39      -2.8372     6.4686     0.5277 H      1 <0>       0.0700
   40 H40      -4.8479     5.5150     2.6129 H      1 <0>       0.0700
   41 H41      -4.8186     7.1366     1.8814 H      1 <0>       0.0800
   42 H42      -6.4504     5.5158     0.7810 H      1 <0>       0.0900
   43 H43      -5.2449     6.2111    -0.3365 H      1 <0>       0.0700
@<TRIPOS>BOND
   1    1    2 2
   2    2    3 am
   3    2   10 am
   4    3    4 1
   5    3   26 1
   6    4    9 ar
   7    4    5 ar
   8    5    6 ar
   9    5   27 1
  10    6    7 ar
  11    6   28 1
  12    7    8 ar
  13    7   29 1
  14    8    9 ar
  15    8   30 1
  16    9   31 1
  17   10   11 1
  18   10   32 1
  19   11   16 ar
  20   11   12 ar
  21   12   13 ar
  22   12   33 1
  23   13   14 ar
  24   13   34 1
  25   14   15 ar
  26   14   35 1
  27   15   24 1
  28   15   16 ar
  29   16   17 1
  30   17   18 1
  31   17   23 1
  32   17   19 1
  33   19   20 1
  34   19   36 1
  35   19   37 1
  36   20   21 1
  37   20   38 1
  38   20   39 1
  39   21   22 1
  40   21   40 1
  41   21   41 1
  42   22   23 1
  43   22   42 1
  44   22   43 1
  45   23   24 am
  46   24   25 2
