@<TRIPOS>MOLECULE
ZINC000004180848
52    53    1     0     0
SMALL
USER_CHARGES
@<TRIPOS>ATOM
1      C1     -1.6433    1.5942   -0.4085 C.3      1 ZINC000004180848   -0.1500
2      C2     -1.0450    0.1866   -0.3678 C.3      1 ZINC000004180848   -0.0900
3      C3     -0.1822    0.0353    0.8866 C.3      1 ZINC000004180848   -0.1500
4      C4     -2.1732   -0.8464   -0.3385 C.3      1 ZINC000004180848    0.0600
5      N5     -1.6040   -2.1963   -0.4469 N.3      1 ZINC000004180848   -0.5000
6      C6     -2.6445   -3.2208   -0.2867 C.3      1 ZINC000004180848    0.0700
7      C7     -3.2080   -3.1576    1.1344 C.3      1 ZINC000004180848   -0.0900
8      C8     -4.3429   -4.1735    1.2786 C.3      1 ZINC000004180848   -0.1500
9      C9     -2.0999   -3.4850    2.1374 C.3      1 ZINC000004180848   -0.1400
10     C10    -0.9291   -2.3565   -1.6491 C.ar     1 ZINC000004180848    0.2100
11     C11    -1.5756   -2.0742   -2.8513 C.ar     1 ZINC000004180848   -0.1600
12     C12    -0.9168   -2.2299   -4.0362 C.ar     1 ZINC000004180848    0.0300
13     C13     0.4147   -2.6750   -4.0428 C.ar     1 ZINC000004180848   -0.1300
14     C14     1.1255   -2.8432   -5.3088 C.2      1 ZINC000004180848    0.1500
15     C15     1.0510   -1.8613   -6.2790 C.2      1 ZINC000004180848   -0.2800
16     C16     0.4700   -0.5353   -5.9908 C.2      1 ZINC000004180848    0.5600
17     O17     0.0384   -0.2690   -4.8851 O.2      1 ZINC000004180848   -0.4600
18     N18     0.4314    0.3732   -6.9873 N.am     1 ZINC000004180848   -0.6200
19     C19     0.9033    0.0932   -8.2100 C.2      1 ZINC000004180848    0.5400
20     S20     0.8111    1.3092   -9.4116 S.2      1 ZINC000004180848   -0.4800
21     N21     1.4439   -1.0872   -8.5429 N.am     1 ZINC000004180848   -0.6200
22     C22     1.5546   -2.0902   -7.6476 C.2      1 ZINC000004180848    0.5600
23     O23     2.0476   -3.1569   -7.9619 O.2      1 ZINC000004180848   -0.4600
24     C24     1.0613   -2.9575   -2.8287 C.ar     1 ZINC000004180848   -0.0100
25     C25     0.3948   -2.7937   -1.6496 C.ar     1 ZINC000004180848   -0.0400
26     N26     1.0751   -3.0911   -0.3690 N.pl3    1 ZINC000004180848    0.0300
27     O27     2.2584   -3.3797   -0.3606 O.2      1 ZINC000004180848   -0.2000
28     O28     0.4515   -3.0473    0.6764 O.2      1 ZINC000004180848   -0.0900
29     H29    -0.8396    2.3302   -0.4294 H        1 ZINC000004180848    0.0600
30     H30    -2.2580    1.7020   -1.3022 H        1 ZINC000004180848    0.0500
31     H31    -2.2586    1.7532    0.4771 H        1 ZINC000004180848    0.0600
32     H32    -0.4297    0.0277   -1.2534 H        1 ZINC000004180848    0.0600
33     H33     0.6636    0.7206    0.8306 H        1 ZINC000004180848    0.0500
34     H34    -0.7795    0.2666    1.7685 H        1 ZINC000004180848    0.0600
35     H35     0.1841   -0.9891    0.9542 H        1 ZINC000004180848    0.0800
36     H36    -2.7226   -0.7580    0.5988 H        1 ZINC000004180848    0.1000
37     H37    -2.8499   -0.6692   -1.1744 H        1 ZINC000004180848    0.0400
38     H38    -3.4455   -3.0403   -1.0035 H        1 ZINC000004180848    0.0400
39     H39    -2.2141   -4.2065   -0.4634 H        1 ZINC000004180848    0.0800
40     H40    -3.5902   -2.1557    1.3294 H        1 ZINC000004180848    0.0700
41     H41    -3.9438   -5.1820    1.1700 H        1 ZINC000004180848    0.0600
42     H42    -4.8019   -4.0683    2.2617 H        1 ZINC000004180848    0.0600
43     H43    -5.0915   -3.9939    0.5070 H        1 ZINC000004180848    0.0500
44     H44    -1.2914   -2.7612    2.0346 H        1 ZINC000004180848    0.0800
45     H45    -2.5014   -3.4400    3.1498 H        1 ZINC000004180848    0.0500
46     H46    -1.7177   -4.4869    1.9423 H        1 ZINC000004180848    0.0500
47     H47    -2.5999   -1.7318   -2.8451 H        1 ZINC000004180848    0.1500
48     H48    -1.4189   -2.0115   -4.9671 H        1 ZINC000004180848    0.1400
49     H49     1.7088   -3.7346   -5.4863 H        1 ZINC000004180848    0.1700
50     H50     0.0528    1.2495   -6.8149 H        1 ZINC000004180848    0.4500
51     H51     1.7662   -1.2222   -9.4478 H        1 ZINC000004180848    0.4500
52     H52     2.0855   -3.3002   -2.8282 H        1 ZINC000004180848    0.1600
@<TRIPOS>BOND
1     1     2     1
2     1     29    1
3     1     30    1
4     1     31    1
5     2     3     1
6     2     4     1
7     2     32    1
8     3     33    1
9     3     34    1
10    3     35    1
11    4     5     1
12    4     36    1
13    4     37    1
14    5     6     1
15    5     10    1
16    6     7     1
17    6     38    1
18    6     39    1
19    7     8     1
20    7     9     1
21    7     40    1
22    8     41    1
23    8     42    1
24    8     43    1
25    9     44    1
26    9     45    1
27    9     46    1
28    10    25    ar
29    10    11    ar
30    11    12    ar
31    11    47    1
32    12    13    ar
33    12    48    1
34    13    14    1
35    13    24    ar
36    14    15    2
37    14    49    1
38    15    22    1
39    15    16    1
40    16    17    2
41    16    18    am
42    18    19    am
43    18    50    1
44    19    20    2
45    19    21    am
46    21    22    am
47    21    51    1
48    22    23    2
49    24    25    ar
50    24    52    1
51    25    26    1
52    26    27    2
53    26    28    2
@<TRIPOS>SUBSTRUCTURE
1   ZINC000004180848 1     RESIDUE    1   A     ZIN   1
