@<TRIPOS>MOLECULE
ZINC000001532734
  44   43    0    0    0
SMALL
USER_CHARGES
NO_NAME
@<TRIPOS>ATOM
    1 N1       -0.0116     1.0048     0.0076 N.4    1 <0>      -0.6400
    2 H2        0.0021    -0.0041     0.0020 H      1 <0>       0.4400
    3 H3        0.9350     1.3541     0.0004 H      1 <0>       0.4400
    4 H4       -0.4996     1.3391    -0.8099 H      1 <0>       0.4500
    5 C5       -0.6992     1.4786     1.2162 C.3    1 <0>       0.0000
    6 C6        0.0408     0.9717     2.4557 C.3    1 <0>      -0.1900
    7 C7       -0.6753     1.4652     3.7145 C.3    1 <0>       0.0000
    8 N8        0.0352     0.9785     4.9046 N.4    1 <0>      -0.5100
    9 H9        0.0488    -0.0304     4.8991 H      1 <0>       0.4400
   10 H10       0.9818     1.3278     4.8975 H      1 <0>       0.4400
   11 C11      -0.6524     1.4523     6.1132 C.3    1 <0>      -0.0100
   12 C12       0.0876     0.9454     7.3528 C.3    1 <0>      -0.1500
   13 C13      -0.6286     1.4389     8.6116 C.3    1 <0>      -0.1500
   14 C14       0.1114     0.9320     9.8511 C.3    1 <0>      -0.0100
   15 N15      -0.5762     1.4058    11.0597 N.4    1 <0>      -0.5100
   16 H16      -0.5898     2.4147    11.0653 H      1 <0>       0.4400
   17 H17      -1.5228     1.0565    11.0669 H      1 <0>       0.4400
   18 C18       0.1343     0.9192    12.2498 C.3    1 <0>       0.0000
   19 C19      -0.5818     1.4126    13.5086 C.3    1 <0>      -0.1900
   20 C20       0.1582     0.9057    14.7481 C.3    1 <0>       0.0000
   21 N21      -0.5294     1.3795    15.9568 N.4    1 <0>      -0.6400
   22 H22      -0.5431     2.3884    15.9623 H      1 <0>       0.4400
   23 H23      -1.4760     1.0302    15.9639 H      1 <0>       0.4400
   24 H24      -0.0414     1.0452    16.7742 H      1 <0>       0.4500
   25 H25      -0.7140     2.5685     1.2222 H      1 <0>       0.1500
   26 H26      -1.7218     1.1013     1.2239 H      1 <0>       0.1500
   27 H27       0.0556    -0.1181     2.4497 H      1 <0>       0.1100
   28 H28       1.0634     1.3490     2.4480 H      1 <0>       0.1100
   29 H29      -0.6901     2.5550     3.7205 H      1 <0>       0.1500
   30 H30      -1.6979     1.0879     3.7222 H      1 <0>       0.1500
   31 H31      -0.6672     2.5422     6.1192 H      1 <0>       0.1400
   32 H32      -1.6750     1.0750     6.1210 H      1 <0>       0.1400
   33 H33       0.1023    -0.1444     7.3468 H      1 <0>       0.1000
   34 H34       1.1102     1.3227     7.3450 H      1 <0>       0.1000
   35 H35      -0.6434     2.5288     8.6176 H      1 <0>       0.1000
   36 H36      -1.6512     1.0616     8.6193 H      1 <0>       0.1000
   37 H37       0.1262    -0.1578     9.8451 H      1 <0>       0.1400
   38 H38       1.1340     1.3093     9.8433 H      1 <0>       0.1400
   39 H39       0.1491    -0.1707    12.2438 H      1 <0>       0.1500
   40 H40       1.1569     1.2964    12.2421 H      1 <0>       0.1500
   41 H41      -0.5966     2.5025    13.5146 H      1 <0>       0.1100
   42 H42      -1.6044     1.0353    13.5164 H      1 <0>       0.1100
   43 H43       0.1730    -0.1841    14.7421 H      1 <0>       0.1500
   44 H44       1.1808     1.2830    14.7404 H      1 <0>       0.1500
@<TRIPOS>BOND
   1    1    2 1
   2    1    3 1
   3    1    4 1
   4    1    5 1
   5    5    6 1
   6    5   25 1
   7    5   26 1
   8    6    7 1
   9    6   27 1
  10    6   28 1
  11    7    8 1
  12    7   29 1
  13    7   30 1
  14    8    9 1
  15    8   10 1
  16    8   11 1
  17   11   12 1
  18   11   31 1
  19   11   32 1
  20   12   13 1
  21   12   33 1
  22   12   34 1
  23   13   14 1
  24   13   35 1
  25   13   36 1
  26   14   15 1
  27   14   37 1
  28   14   38 1
  29   15   16 1
  30   15   17 1
  31   15   18 1
  32   18   19 1
  33   18   39 1
  34   18   40 1
  35   19   20 1
  36   19   41 1
  37   19   42 1
  38   20   21 1
  39   20   43 1
  40   20   44 1
  41   21   22 1
  42   21   23 1
  43   21   24 1
