@<TRIPOS>MOLECULE
ZINC000006018691
40    42    1     0     0
SMALL
USER_CHARGES
@<TRIPOS>ATOM
1      C1     -0.0173    1.4248    0.0099 C.3      1 ZINC000006018691    0.0200
2      O2      0.0021   -0.0041    0.0020 O.3      1 ZINC000006018691   -0.3000
3      C3      0.6256   -0.6181    1.0411 C.ar     1 ZINC000006018691    0.1100
4      C4      1.2012    0.1416    2.0496 C.ar     1 ZINC000006018691   -0.1800
5      C5      1.8348   -0.4765    3.1065 C.ar     1 ZINC000006018691   -0.0800
6      C6      1.8983   -1.8710    3.1639 C.ar     1 ZINC000006018691   -0.0500
7      C7      2.5753   -2.5343    4.2942 C.2      1 ZINC000006018691    0.1900
8      C8      3.1251   -1.7634    5.2709 C.2      1 ZINC000006018691   -0.3100
9      C9      3.7785   -2.3817    6.3628 C.2      1 ZINC000006018691    0.4300
10     O10     4.2824   -1.7210    7.2568 O.2      1 ZINC000006018691   -0.5000
11     C11     3.8265   -3.8537    6.3791 C.ar     1 ZINC000006018691   -0.3600
12     C12     4.4521   -4.5483    7.4209 C.ar     1 ZINC000006018691    0.2100
13     O13     5.0315   -3.8697    8.4451 O.3      1 ZINC000006018691   -0.4800
14     C14     4.4754   -5.9338    7.3994 C.ar     1 ZINC000006018691   -0.0900
15     O15     5.0813   -6.6193    8.4077 O.3      1 ZINC000006018691   -0.3100
16     C16     4.2704   -6.9744    9.5295 C.3      1 ZINC000006018691    0.0400
17     C17     3.8791   -6.6261    6.3473 C.ar     1 ZINC000006018691    0.3100
18     O18     3.9057   -7.9841    6.3346 O.3      1 ZINC000006018691   -0.6700
19     C19     3.2587   -5.9417    5.3140 C.ar     1 ZINC000006018691   -0.2900
20     C20     3.2265   -4.5561    5.3192 C.ar     1 ZINC000006018691    0.2000
21     O21     2.6205   -3.8756    4.3223 O.3      1 ZINC000006018691   -0.2300
22     C22     1.3183   -2.6363    2.1478 C.ar     1 ZINC000006018691   -0.1400
23     C23     0.6806   -2.0103    1.0946 C.ar     1 ZINC000006018691    0.1000
24     O24     0.1149   -2.7517    0.1047 O.3      1 ZINC000006018691   -0.3100
25     C25     0.2181   -4.1724    0.2185 C.3      1 ZINC000006018691    0.0200
26     H26     1.0053    1.8021    0.0021 H        1 ZINC000006018691    0.0600
27     H27    -0.5445    1.7859   -0.8732 H        1 ZINC000006018691    0.1000
28     H28    -0.5275    1.7763    0.9067 H        1 ZINC000006018691    0.0600
29     H29     1.1531    1.2196    2.0062 H        1 ZINC000006018691    0.1400
30     H30     2.2822    0.1172    3.8899 H        1 ZINC000006018691    0.1400
31     H31     3.0635   -0.6867    5.2130 H        1 ZINC000006018691    0.1500
32     H32     4.4363   -3.6933    9.1865 H        1 ZINC000006018691    0.3800
33     H33     3.8701   -6.0707    9.9890 H        1 ZINC000006018691    0.0300
34     H34     3.4480   -7.6080    9.1974 H        1 ZINC000006018691    0.0400
35     H35     4.8746   -7.5153   10.2578 H        1 ZINC000006018691    0.0800
36     H36     2.8001   -6.4887    4.5036 H        1 ZINC000006018691    0.1200
37     H37     1.3655   -3.7145    2.1882 H        1 ZINC000006018691    0.1500
38     H38    -0.2630   -4.4990    1.1404 H        1 ZINC000006018691    0.0600
39     H39    -0.2732   -4.6418   -0.6338 H        1 ZINC000006018691    0.1000
40     H40     1.2694   -4.4601    0.2356 H        1 ZINC000006018691    0.0600
@<TRIPOS>BOND
1     1     2     1
2     1     26    1
3     1     27    1
4     1     28    1
5     2     3     1
6     3     23    ar
7     3     4     ar
8     4     5     ar
9     4     29    1
10    5     6     ar
11    5     30    1
12    6     7     1
13    6     22    ar
14    7     21    1
15    7     8     2
16    8     9     1
17    8     31    1
18    9     10    2
19    9     11    1
20    11    20    ar
21    11    12    ar
22    12    13    1
23    12    14    ar
24    13    32    1
25    14    15    1
26    14    17    ar
27    15    16    1
28    16    33    1
29    16    34    1
30    16    35    1
31    17    18    1
32    17    19    ar
33    19    20    ar
34    19    36    1
35    20    21    1
36    22    23    ar
37    22    37    1
38    23    24    1
39    24    25    1
40    25    38    1
41    25    39    1
42    25    40    1
@<TRIPOS>SUBSTRUCTURE
1   ZINC000006018691 1     RESIDUE    1   A     ZIN   1
