@<TRIPOS>MOLECULE
ZINC000521836460
43    45    1     0     0
SMALL
USER_CHARGES
@<TRIPOS>ATOM
1      C1      0.2224    1.2570    0.2642 C.3      1 ZINC000521836460   -0.1400
2      C2      0.0761   -0.2429   -0.0002 C.3      1 ZINC000521836460   -0.0100
3      C3      0.8109   -1.0268    1.0890 C.3      1 ZINC000521836460   -0.1500
4      C4     -1.3842   -0.6149    0.0116 C.2      1 ZINC000521836460    0.0400
5      N5     -2.1635   -0.7104   -1.0354 N.2      1 ZINC000521836460   -0.2700
6      N6     -3.3546   -1.0466   -0.6916 N.pl3    1 ZINC000521836460   -0.3800
7      C7     -3.4159   -1.1948    0.6649 C.2      1 ZINC000521836460   -0.0400
8      C8     -4.5953   -1.5728    1.4597 C.2      1 ZINC000521836460    0.6100
9      O9     -4.5418   -1.5528    2.6747 O.2      1 ZINC000521836460   -0.5100
10     N10    -5.7348   -1.9412    0.8413 N.am     1 ZINC000521836460   -0.6200
11     C11    -5.9026   -2.1268   -0.6115 C.3      1 ZINC000521836460    0.0800
12     C12    -7.0981   -3.1020   -0.7512 C.3      1 ZINC000521836460   -0.1400
13     C13    -8.0200   -2.6322    0.4049 C.3      1 ZINC000521836460    0.1400
14     H14    -8.6210   -1.7770    0.0957 H        1 ZINC000521836460    0.1100
15     N15    -8.8781   -3.7283    0.8617 N.am     1 ZINC000521836460   -0.7200
16     C16   -10.0542   -3.4582    1.4618 C.2      1 ZINC000521836460    0.5500
17     O17   -10.4023   -2.3077    1.6237 O.2      1 ZINC000521836460   -0.5300
18     C18   -10.9369   -4.5857    1.9316 C.3      1 ZINC000521836460   -0.2000
19     C19   -11.1046   -4.7695    3.4413 C.3      1 ZINC000521836460   -0.1500
20     C20   -12.2593   -4.2139    2.6054 C.3      1 ZINC000521836460   -0.1500
21     C21    -7.0146   -2.2306    1.5045 C.3      1 ZINC000521836460    0.1000
22     C22    -2.1448   -0.9249    1.1414 C.2      1 ZINC000521836460   -0.1400
23     H23     1.2786    1.5261    0.2557 H        1 ZINC000521836460    0.0600
24     H24    -0.3011    1.8155   -0.5117 H        1 ZINC000521836460    0.0600
25     H25    -0.2061    1.4979    1.2371 H        1 ZINC000521836460    0.0600
26     H26     0.5045   -0.4838   -0.9731 H        1 ZINC000521836460    0.0900
27     H27     0.3825   -0.7859    2.0619 H        1 ZINC000521836460    0.0600
28     H28     0.7067   -2.0953    0.9006 H        1 ZINC000521836460    0.0600
29     H29     1.8671   -0.7577    1.0804 H        1 ZINC000521836460    0.0600
30     H30    -4.0972   -1.1755   -1.3022 H        1 ZINC000521836460    0.4400
31     H31    -6.1311   -1.1753   -1.0916 H        1 ZINC000521836460    0.0800
32     H32    -5.0032   -2.5648   -1.0444 H        1 ZINC000521836460    0.0800
33     H33    -7.5897   -2.9816   -1.7165 H        1 ZINC000521836460    0.1000
34     H34    -6.7800   -4.1339   -0.6025 H        1 ZINC000521836460    0.0900
35     H35    -8.5997   -4.6484    0.7322 H        1 ZINC000521836460    0.4100
36     H36   -10.9218   -5.4834    1.3136 H        1 ZINC000521836460    0.1300
37     H37   -11.1997   -5.7884    3.8167 H        1 ZINC000521836460    0.1100
38     H38   -10.5765   -4.0750    4.0946 H        1 ZINC000521836460    0.1000
39     H39   -12.4909   -3.1538    2.7088 H        1 ZINC000521836460    0.1100
40     H40   -13.1142   -4.8672    2.4308 H        1 ZINC000521836460    0.1100
41     H41    -6.8936   -3.0497    2.2133 H        1 ZINC000521836460    0.0800
42     H42    -7.3681   -1.3388    2.0222 H        1 ZINC000521836460    0.0800
43     H43    -1.8131   -0.9435    2.1691 H        1 ZINC000521836460    0.1700
@<TRIPOS>BOND
1     1     2     1
2     1     23    1
3     1     24    1
4     1     25    1
5     2     3     1
6     2     4     1
7     2     26    1
8     3     27    1
9     3     28    1
10    3     29    1
11    4     22    1
12    4     5     2
13    5     6     1
14    6     7     1
15    6     30    1
16    7     8     1
17    7     22    2
18    8     9     2
19    8     10    am
20    10    21    1
21    10    11    1
22    11    12    1
23    11    31    1
24    11    32    1
25    12    13    1
26    12    33    1
27    12    34    1
28    13    14    1
29    13    15    1
30    13    21    1
31    15    16    am
32    15    35    1
33    16    17    2
34    16    18    1
35    18    20    1
36    18    19    1
37    18    36    1
38    19    20    1
39    19    37    1
40    19    38    1
41    20    39    1
42    20    40    1
43    21    41    1
44    21    42    1
45    22    43    1
@<TRIPOS>SUBSTRUCTURE
1   ZINC000521836460 1     RESIDUE    1   A     ZIN   1
