@<TRIPOS>MOLECULE
ZINC000001029685
  52   54    0    0    0
SMALL
USER_CHARGES
NO_NAME
@<TRIPOS>ATOM
    1 C1        1.7342    -1.6399    -1.5157 C.3    1 <0>      -0.1500
    2 C2        1.0100    -0.8742    -0.4065 C.3    1 <0>      -0.0600
    3 C3        0.9792     0.6160    -0.7518 C.3    1 <0>      -0.1500
    4 C4       -0.4003    -1.3896    -0.2786 C.ar   1 <0>      -0.0900
    5 C5       -1.2614    -1.3185    -1.3583 C.ar   1 <0>      -0.1000
    6 C6       -2.5545    -1.7900    -1.2444 C.ar   1 <0>      -0.1100
    7 C7       -2.9896    -2.3361    -0.0440 C.ar   1 <0>       0.1400
    8 N8       -4.2990    -2.8151     0.0746 N.am   1 <0>      -0.6600
    9 C9       -4.9007    -3.4001    -0.9800 C.2    1 <0>       0.5400
   10 O10      -4.2782    -3.5937    -2.0028 O.2    1 <0>      -0.5000
   11 C11      -6.3469    -3.8137    -0.8885 C.3    1 <0>      -0.1700
   12 S12      -6.8600    -4.5643    -2.4536 S.3    1 <0>       0.1300
   13 C13      -8.5391    -4.9419    -2.0758 C.2    1 <0>       0.1900
   14 N14      -9.1594    -4.6989    -0.9411 N.2    1 <0>      -0.3300
   15 N15     -10.3779    -5.0999    -0.9996 N.2    1 <0>      -0.0300
   16 N16     -10.6250    -5.6197    -2.1529 N.2    1 <0>      -0.0700
   17 N17      -9.4384    -5.5328    -2.9018 N.pl3  1 <0>      -0.2900
   18 C18      -9.2272    -5.9707    -4.2185 C.ar   1 <0>       0.0500
   19 C19      -8.3800    -5.2607    -5.0586 C.ar   1 <0>      -0.0600
   20 C20      -8.1721    -5.6910    -6.3535 C.ar   1 <0>      -0.1800
   21 C21      -8.8102    -6.8349    -6.8161 C.ar   1 <0>       0.2400
   22 N22      -8.5996    -7.2713    -8.1274 N.pl3  1 <0>      -0.6300
   23 C23      -7.6943    -6.5305    -9.0094 C.3    1 <0>       0.0900
   24 C24      -9.2840    -8.4695    -8.6195 C.3    1 <0>       0.0800
   25 C25      -9.6575    -7.5453    -5.9751 C.ar   1 <0>      -0.1900
   26 C26      -9.8611    -7.1170    -4.6787 C.ar   1 <0>      -0.0400
   27 C27      -2.1223    -2.4064     1.0383 C.ar   1 <0>      -0.1400
   28 C28      -0.8289    -1.9377     0.9164 C.ar   1 <0>      -0.1000
   29 H29       2.7543    -1.2672    -1.6081 H      1 <0>       0.0600
   30 H30       1.7562    -2.7015    -1.2696 H      1 <0>       0.0600
   31 H31       1.2080    -1.4964    -2.4594 H      1 <0>       0.0600
   32 H32       1.5362    -1.0177     0.5373 H      1 <0>       0.0800
   33 H33       0.4530     0.7594    -1.6955 H      1 <0>       0.0600
   34 H34       0.4633     1.1614     0.0384 H      1 <0>       0.0600
   35 H35       1.9993     0.9887    -0.8443 H      1 <0>       0.0600
   36 H36      -0.9224    -0.8937    -2.2916 H      1 <0>       0.1300
   37 H37      -3.2267    -1.7336    -2.0878 H      1 <0>       0.1300
   38 H38      -4.7737    -2.7260     0.9158 H      1 <0>       0.4200
   39 H39      -6.4676    -4.5369    -0.0819 H      1 <0>       0.1400
   40 H40      -6.9632    -2.9377    -0.6863 H      1 <0>       0.1400
   41 H41      -7.8839    -4.3714    -4.6989 H      1 <0>       0.1400
   42 H42      -7.5136    -5.1382    -7.0072 H      1 <0>       0.1400
   43 H43      -6.6839    -6.9269    -8.9088 H      1 <0>       0.0600
   44 H44      -8.0254    -6.6374   -10.0424 H      1 <0>       0.0700
   45 H45      -7.7001    -5.4761    -8.7332 H      1 <0>       0.0700
   46 H46      -9.9797    -8.8279    -7.8608 H      1 <0>       0.0800
   47 H47      -9.8324    -8.2266    -9.5296 H      1 <0>       0.0600
   48 H48      -8.5492    -9.2453    -8.8342 H      1 <0>       0.0600
   49 H49     -10.1541    -8.4345    -6.3344 H      1 <0>       0.1400
   50 H50     -10.5195    -7.6694    -4.0247 H      1 <0>       0.1400
   51 H51      -2.4577    -2.8306     1.9732 H      1 <0>       0.1300
   52 H52      -0.1539    -1.9921     1.7577 H      1 <0>       0.1300
@<TRIPOS>BOND
   1    1    2 1
   2    1   29 1
   3    1   30 1
   4    1   31 1
   5    2    3 1
   6    2    4 1
   7    2   32 1
   8    3   33 1
   9    3   34 1
  10    3   35 1
  11    4   28 ar
  12    4    5 ar
  13    5    6 ar
  14    5   36 1
  15    6    7 ar
  16    6   37 1
  17    7    8 1
  18    7   27 ar
  19    8    9 am
  20    8   38 1
  21    9   10 2
  22    9   11 1
  23   11   12 1
  24   11   39 1
  25   11   40 1
  26   12   13 1
  27   13   17 1
  28   13   14 2
  29   14   15 1
  30   15   16 2
  31   16   17 1
  32   17   18 1
  33   18   26 ar
  34   18   19 ar
  35   19   20 ar
  36   19   41 1
  37   20   21 ar
  38   20   42 1
  39   21   22 1
  40   21   25 ar
  41   22   23 1
  42   22   24 1
  43   23   43 1
  44   23   44 1
  45   23   45 1
  46   24   46 1
  47   24   47 1
  48   24   48 1
  49   25   26 ar
  50   25   49 1
  51   26   50 1
  52   27   28 ar
  53   27   51 1
  54   28   52 1
