@<TRIPOS>MOLECULE
ZINC000003956919
44    45    1     0     0
SMALL
USER_CHARGES
@<TRIPOS>ATOM
1      C1      0.6213   -0.8288    1.3839 C.3      1 ZINC000003956919   -0.1700
2      C2      0.0606   -0.1861    0.1137 C.3      1 ZINC000003956919    0.0300
3      C3      0.8778   -0.6472   -1.0948 C.3      1 ZINC000003956919   -0.1100
4      O4     -1.3032   -0.5776   -0.0561 O.3      1 ZINC000003956919   -0.3000
5      C5     -2.1690   -0.2444    0.9371 C.ar     1 ZINC000003956919    0.1700
6      C6     -1.7401    0.5384    1.9991 C.ar     1 ZINC000003956919   -0.1500
7      C7     -2.6222    0.8761    3.0072 C.ar     1 ZINC000003956919   -0.0900
8      C8     -3.9315    0.4342    2.9585 C.ar     1 ZINC000003956919   -0.1500
9      C9     -4.8915    0.8037    4.0598 C.3      1 ZINC000003956919   -0.0700
10     C10    -5.5909    2.1180    3.7071 C.3      1 ZINC000003956919    0.1200
11     N11    -6.5241    2.4771    4.7777 N.am     1 ZINC000003956919   -0.7200
12     C12    -7.2564    3.6047    4.6833 C.2      1 ZINC000003956919    0.5500
13     O13    -7.1425    4.3236    3.7097 O.2      1 ZINC000003956919   -0.5300
14     C14    -8.1979    3.9670    5.7633 C.ar     1 ZINC000003956919   -0.1300
15     C15    -8.3267    3.1462    6.8853 C.ar     1 ZINC000003956919   -0.0700
16     C16    -9.2069    3.4895    7.8898 C.ar     1 ZINC000003956919   -0.1200
17     C17    -9.9623    4.6459    7.7872 C.ar     1 ZINC000003956919   -0.0100
18     Cl18  -11.0678    5.0718    9.0561 Cl       1 ZINC000003956919   -0.0600
19     C19    -9.8388    5.4642    6.6764 C.ar     1 ZINC000003956919   -0.1200
20     C20    -8.9578    5.1343    5.6682 C.ar     1 ZINC000003956919   -0.0500
21     C21    -4.3615   -0.3457    1.9009 C.ar     1 ZINC000003956919   -0.0900
22     C22    -3.4846   -0.6818    0.8877 C.ar     1 ZINC000003956919   -0.1700
23     C23     0.1415    1.3141    0.2320 C.2      1 ZINC000003956919    0.4800
24     O24     1.2230    1.8562    0.3836 O.co2    1 ZINC000003956919   -0.6900
25     O25    -0.8745    1.9857    0.1761 O.co2    1 ZINC000003956919   -0.6700
26     H26     1.6076   -0.4156    1.5952 H        1 ZINC000003956919    0.0700
27     H27    -0.0460   -0.6224    2.2206 H        1 ZINC000003956919    0.0700
28     H28     0.7019   -1.9064    1.2407 H        1 ZINC000003956919    0.0500
29     H29     0.7572   -1.7225   -1.2260 H        1 ZINC000003956919    0.0500
30     H30     0.5278   -0.1307   -1.9885 H        1 ZINC000003956919    0.0600
31     H31     1.9305   -0.4169   -0.9308 H        1 ZINC000003956919    0.0800
32     H32    -0.7174    0.8832    2.0379 H        1 ZINC000003956919    0.1400
33     H33    -2.2888    1.4855    3.8342 H        1 ZINC000003956919    0.1100
34     H34    -5.6355    0.0152    4.1730 H        1 ZINC000003956919    0.0700
35     H35    -4.3436    0.9231    4.9946 H        1 ZINC000003956919    0.0700
36     H36    -4.8468    2.9065    3.5940 H        1 ZINC000003956919    0.0800
37     H37    -6.1387    1.9986    2.7724 H        1 ZINC000003956919    0.0700
38     H38    -6.6150    1.9035    5.5546 H        1 ZINC000003956919    0.4000
39     H39    -7.7385    2.2441    6.9662 H        1 ZINC000003956919    0.1400
40     H40    -9.3076    2.8552    8.7581 H        1 ZINC000003956919    0.1400
41     H41   -10.4305    6.3646    6.6019 H        1 ZINC000003956919    0.1400
42     H42    -8.8622    5.7732    4.8027 H        1 ZINC000003956919    0.1500
43     H43    -5.3847   -0.6894    1.8650 H        1 ZINC000003956919    0.1200
44     H44    -3.8210   -1.2910    0.0618 H        1 ZINC000003956919    0.1200
@<TRIPOS>BOND
1     1     2     1
2     1     26    1
3     1     27    1
4     1     28    1
5     2     3     1
6     2     4     1
7     2     23    1
8     3     29    1
9     3     30    1
10    3     31    1
11    4     5     1
12    5     22    ar
13    5     6     ar
14    6     7     ar
15    6     32    1
16    7     8     ar
17    7     33    1
18    8     9     1
19    8     21    ar
20    9     10    1
21    9     34    1
22    9     35    1
23    10    11    1
24    10    36    1
25    10    37    1
26    11    12    am
27    11    38    1
28    12    13    2
29    12    14    1
30    14    20    ar
31    14    15    ar
32    15    16    ar
33    15    39    1
34    16    17    ar
35    16    40    1
36    17    18    1
37    17    19    ar
38    19    20    ar
39    19    41    1
40    20    42    1
41    21    22    ar
42    21    43    1
43    22    44    1
44    23    24    ar
45    23    25    ar
@<TRIPOS>SUBSTRUCTURE
1   ZINC000003956919 1     RESIDUE    1   A     ZIN   1
