@<TRIPOS>MOLECULE
ZINC000003872446
26    29    1     0     0
SMALL
USER_CHARGES
@<TRIPOS>ATOM
1      O1      0.0021   -0.0041    0.0020 O.2      1 ZINC000003872446   -0.4700
2      C2     -0.0144    1.2121    0.0087 C.2      1 ZINC000003872446    0.5400
3      O3     -1.1915    1.8818    0.0292 O.3      1 ZINC000003872446   -0.2800
4      C4     -1.2882    3.0579   -0.6388 C.ar     1 ZINC000003872446    0.1300
5      C5     -2.5078    3.5758   -1.0629 C.ar     1 ZINC000003872446   -0.0300
6      O6     -3.6546    2.8842   -0.8331 O.3      1 ZINC000003872446   -0.4700
7      C7     -2.5562    4.8043   -1.7234 C.ar     1 ZINC000003872446    0.2600
8      O8     -3.7599    5.2930   -2.1248 O.3      1 ZINC000003872446   -0.7000
9      C9     -1.4089    5.5399   -1.9817 C.ar     1 ZINC000003872446   -0.1800
10     C10    -0.1784    5.0389   -1.5767 C.ar     1 ZINC000003872446   -0.1100
11     C11    -0.1387    3.7982   -0.9061 C.ar     1 ZINC000003872446   -0.1600
12     C12     1.1761    3.2988   -0.4861 C.ar     1 ZINC000003872446   -0.1600
13     C13     1.2438    1.9740    0.0008 C.ar     1 ZINC000003872446   -0.1100
14     C14     2.4746    1.4734    0.4048 C.ar     1 ZINC000003872446   -0.1800
15     C15     3.5990    2.2792    0.3014 C.ar     1 ZINC000003872446    0.2600
16     O16     4.8048    1.7859    0.6905 O.3      1 ZINC000003872446   -0.7000
17     C17     3.5254    3.5828   -0.1918 C.ar     1 ZINC000003872446   -0.0300
18     O18     4.6520    4.3365   -0.2864 O.3      1 ZINC000003872446   -0.4700
19     C19     2.3007    4.1148   -0.5833 C.ar     1 ZINC000003872446    0.1300
20     O20     2.1698    5.3905   -1.0246 O.3      1 ZINC000003872446   -0.2800
21     C21     1.1120    5.7059   -1.8082 C.2      1 ZINC000003872446    0.5400
22     O22     1.2283    6.5264   -2.6985 O.2      1 ZINC000003872446   -0.4700
23     H23    -4.0806    3.0973    0.0084 H        1 ZINC000003872446    0.3600
24     H24    -1.4715    6.4899   -2.4915 H        1 ZINC000003872446    0.1200
25     H25     2.5553    0.4695    0.7948 H        1 ZINC000003872446    0.1200
26     H26     5.1117    4.2523   -1.1330 H        1 ZINC000003872446    0.3600
@<TRIPOS>BOND
1     1     2     2
2     2     13    1
3     2     3     1
4     3     4     1
5     4     11    ar
6     4     5     ar
7     5     6     1
8     5     7     ar
9     6     23    1
10    7     8     1
11    7     9     ar
12    9     10    ar
13    9     24    1
14    10    21    1
15    10    11    ar
16    11    12    1
17    12    19    ar
18    12    13    ar
19    13    14    ar
20    14    15    ar
21    14    25    1
22    15    16    1
23    15    17    ar
24    17    18    1
25    17    19    ar
26    18    26    1
27    19    20    1
28    20    21    1
29    21    22    2
@<TRIPOS>SUBSTRUCTURE
1   ZINC000003872446 1     RESIDUE    1   A     ZIN   1
