@<TRIPOS>MOLECULE
ZINC000038377629
76    80    1     0     0
SMALL
USER_CHARGES
@<TRIPOS>ATOM
1      C1      0.9473   -1.2088    0.0665 C.3      1 ZINC000038377629   -0.1600
2      C2     -0.0230   -0.0262    0.0349 C.3      1 ZINC000038377629    0.1800
3      H3      0.1724    0.5805   -0.8494 H        1 ZINC000038377629    0.1200
4      C4      0.1676    0.8131    1.2720 C.ar     1 ZINC000038377629   -0.1900
5      C5      0.8084    0.2832    2.3744 C.ar     1 ZINC000038377629   -0.0500
6      C6      0.9835    1.0520    3.5105 C.ar     1 ZINC000038377629   -0.1700
7      C7      0.5173    2.3545    3.5466 C.ar     1 ZINC000038377629    0.0300
8      Cl8     0.7394    3.3159    4.9750 Cl       1 ZINC000038377629   -0.0600
9      C9     -0.1246    2.8908    2.4460 C.ar     1 ZINC000038377629   -0.1900
10     C10    -0.2964    2.1224    1.3021 C.ar     1 ZINC000038377629    0.2500
11     N11    -0.9441    2.6611    0.1880 N.pl3    1 ZINC000038377629   -0.8700
12     N12    -1.3997   -0.5250   -0.0095 N.am     1 ZINC000038377629   -0.5800
13     C13    -2.1431   -0.2887   -1.0892 C.2      1 ZINC000038377629    0.5600
14     O14    -1.6318    0.3257   -2.0055 O.2      1 ZINC000038377629   -0.5300
15     C15    -3.5369   -0.7196   -1.2489 C.ar     1 ZINC000038377629   -0.1400
16     C16    -4.4277    0.1762   -1.8629 C.ar     1 ZINC000038377629   -0.0100
17     C17    -5.7491   -0.1630   -2.0389 C.ar     1 ZINC000038377629   -0.1200
18     I18    -7.0632    1.1860   -2.9567 I        1 ZINC000038377629   -0.0100
19     C19    -6.2114   -1.3969   -1.6098 C.ar     1 ZINC000038377629   -0.0300
20     C20    -5.3500   -2.2872   -1.0083 C.ar     1 ZINC000038377629   -0.1500
21     C21    -4.0043   -1.9621   -0.8219 C.ar     1 ZINC000038377629    0.2100
22     N22    -3.1998   -2.9137   -0.2196 N.am     1 ZINC000038377629   -0.5400
23     C23    -3.4009   -4.3094   -0.6167 C.3      1 ZINC000038377629    0.0900
24     C24    -2.4962   -4.6366   -1.8063 C.3      1 ZINC000038377629   -0.1400
25     C25    -2.7062   -6.0943   -2.2210 C.3      1 ZINC000038377629    0.0600
26     N26    -1.8375   -6.4085   -3.3632 N.3      1 ZINC000038377629   -0.5400
27     C27    -1.9082   -5.3539   -4.3845 C.3      1 ZINC000038377629    0.0200
28     C28    -0.9466   -5.6890   -5.5267 C.3      1 ZINC000038377629    0.0000
29     N29    -1.3132   -6.9857   -6.1111 N.4      1 ZINC000038377629   -0.3900
30     H30    -2.2600   -6.9428   -6.4573 H        1 ZINC000038377629    0.4200
31     C31    -0.4008   -7.2987   -7.2191 C.3      1 ZINC000038377629   -0.0500
32     C32    -1.2141   -8.0325   -5.0855 C.3      1 ZINC000038377629    0.0000
33     C33    -2.1779   -7.7170   -3.9396 C.3      1 ZINC000038377629    0.0300
34     C34    -2.2596   -2.6694    0.6884 C.2      1 ZINC000038377629    0.5200
35     O35    -1.6523   -3.6011    1.1720 O.2      1 ZINC000038377629   -0.5000
36     C36    -1.9248   -1.2765    1.1304 C.3      1 ZINC000038377629    0.1700
37     H37    -1.1745   -1.3145    1.9202 H        1 ZINC000038377629    0.1500
38     C38    -3.1675   -0.5983    1.6469 C.ar     1 ZINC000038377629   -0.1100
39     C39    -4.1635   -1.3455    2.2476 C.ar     1 ZINC000038377629   -0.0900
40     C40    -5.3035   -0.7241    2.7215 C.ar     1 ZINC000038377629   -0.1000
41     C41    -5.4477    0.6460    2.5946 C.ar     1 ZINC000038377629   -0.0200
42     Cl42   -6.8790    1.4274    3.1900 Cl       1 ZINC000038377629   -0.0600
43     C43    -4.4506    1.3933    1.9933 C.ar     1 ZINC000038377629   -0.1000
44     C44    -3.3085    0.7714    1.5249 C.ar     1 ZINC000038377629   -0.0900
45     H45     1.9716   -0.8376    0.0995 H        1 ZINC000038377629    0.0800
46     H46     0.7520   -1.8154    0.9507 H        1 ZINC000038377629    0.0700
47     H47     0.8095   -1.8158   -0.8283 H        1 ZINC000038377629    0.0600
48     H48     1.1730   -0.7330    2.3495 H        1 ZINC000038377629    0.1400
49     H49     1.4847    0.6350    4.3714 H        1 ZINC000038377629    0.1300
50     H50    -0.4883    3.9073    2.4743 H        1 ZINC000038377629    0.1400
51     H51    -1.2745    3.5728    0.2128 H        1 ZINC000038377629    0.4000
52     H52    -1.0636    2.1235   -0.6105 H        1 ZINC000038377629    0.4000
53     H53    -4.0724    1.1391   -2.1991 H        1 ZINC000038377629    0.1400
54     H54    -7.2496   -1.6608   -1.7471 H        1 ZINC000038377629    0.1400
55     H55    -5.7188   -3.2466   -0.6768 H        1 ZINC000038377629    0.1400
56     H56    -3.1535   -4.9641    0.2189 H        1 ZINC000038377629    0.1100
57     H57    -4.4426   -4.4600   -0.9002 H        1 ZINC000038377629    0.0900
58     H58    -2.7435   -3.9819   -2.6419 H        1 ZINC000038377629    0.0700
59     H59    -1.4545   -4.4861   -1.5227 H        1 ZINC000038377629    0.0800
60     H60    -2.4588   -6.7491   -1.3854 H        1 ZINC000038377629    0.1000
61     H61    -3.7479   -6.2449   -2.5045 H        1 ZINC000038377629    0.0500
62     H62    -2.9250   -5.2904   -4.7719 H        1 ZINC000038377629    0.0600
63     H63    -1.6273   -4.3987   -3.9409 H        1 ZINC000038377629    0.1300
64     H64    -1.0079   -4.9152   -6.2920 H        1 ZINC000038377629    0.1400
65     H65     0.0718   -5.7390   -5.1415 H        1 ZINC000038377629    0.1400
66     H66     0.6221   -7.3446   -6.8455 H        1 ZINC000038377629    0.1200
67     H67    -0.6727   -8.2610   -7.6529 H        1 ZINC000038377629    0.1200
68     H68    -0.4749   -6.5227   -7.9810 H        1 ZINC000038377629    0.1200
69     H69    -1.4738   -8.9962   -5.5237 H        1 ZINC000038377629    0.1400
70     H70    -0.1943   -8.0705   -4.7025 H        1 ZINC000038377629    0.1400
71     H71    -2.0938   -8.4857   -3.1714 H        1 ZINC000038377629    0.1200
72     H72    -3.1992   -7.6924   -4.3196 H        1 ZINC000038377629    0.0600
73     H73    -4.0509   -2.4151    2.3462 H        1 ZINC000038377629    0.1300
74     H74    -6.0817   -1.3080    3.1904 H        1 ZINC000038377629    0.1400
75     H75    -4.5628    2.4628    1.8937 H        1 ZINC000038377629    0.1400
76     H76    -2.5299    1.3547    1.0558 H        1 ZINC000038377629    0.1400
@<TRIPOS>BOND
1     1     2     1
2     1     45    1
3     1     46    1
4     1     47    1
5     2     3     1
6     2     4     1
7     2     12    1
8     4     10    ar
9     4     5     ar
10    5     6     ar
11    5     48    1
12    6     7     ar
13    6     49    1
14    7     8     1
15    7     9     ar
16    9     10    ar
17    9     50    1
18    10    11    1
19    11    51    1
20    11    52    1
21    12    36    1
22    12    13    am
23    13    14    2
24    13    15    1
25    15    21    ar
26    15    16    ar
27    16    17    ar
28    16    53    1
29    17    18    1
30    17    19    ar
31    19    20    ar
32    19    54    1
33    20    21    ar
34    20    55    1
35    21    22    1
36    22    23    1
37    22    34    am
38    23    24    1
39    23    56    1
40    23    57    1
41    24    25    1
42    24    58    1
43    24    59    1
44    25    26    1
45    25    60    1
46    25    61    1
47    26    33    1
48    26    27    1
49    27    28    1
50    27    62    1
51    27    63    1
52    28    29    1
53    28    64    1
54    28    65    1
55    29    30    1
56    29    31    1
57    29    32    1
58    31    66    1
59    31    67    1
60    31    68    1
61    32    33    1
62    32    69    1
63    32    70    1
64    33    71    1
65    33    72    1
66    34    35    2
67    34    36    1
68    36    37    1
69    36    38    1
70    38    44    ar
71    38    39    ar
72    39    40    ar
73    39    73    1
74    40    41    ar
75    40    74    1
76    41    42    1
77    41    43    ar
78    43    44    ar
79    43    75    1
80    44    76    1
@<TRIPOS>SUBSTRUCTURE
1   ZINC000038377629 1     RESIDUE    1   A     ZIN   1
