@<TRIPOS>MOLECULE
ZINC000024044436
76    80    1     0     0
SMALL
USER_CHARGES
@<TRIPOS>ATOM
1      C1     -0.3711    1.2763   -0.0779 C.3      1 ZINC000024044436   -0.1200
2      C2     -0.2555   -0.2259   -0.1094 C.ar     1 ZINC000024044436   -0.0900
3      C3     -0.1464   -0.8843   -1.3205 C.ar     1 ZINC000024044436   -0.0900
4      C4     -0.0407   -2.2611   -1.3526 C.ar     1 ZINC000024044436   -0.1000
5      C5     -0.0435   -2.9840   -0.1672 C.ar     1 ZINC000024044436    0.1500
6      N6      0.0641   -4.3811   -0.1965 N.pl3    1 ZINC000024044436   -0.3400
7      N7     -0.4705   -5.2299   -1.1742 N.2      1 ZINC000024044436   -0.2700
8      C8     -0.1646   -6.4637   -0.8627 C.2      1 ZINC000024044436    0.1100
9      C9     -0.5455   -7.6910   -1.6499 C.3      1 ZINC000024044436    0.0100
10     C10    -1.6768   -8.4278   -0.9301 C.3      1 ZINC000024044436   -0.1400
11     C11    -1.0140   -7.2763   -3.0461 C.3      1 ZINC000024044436   -0.1400
12     C12     0.6679   -8.6150   -1.7726 C.3      1 ZINC000024044436   -0.1400
13     C13     0.5753   -6.4509    0.3231 C.2      1 ZINC000024044436   -0.2600
14     C14     0.7116   -5.1550    0.7167 C.2      1 ZINC000024044436    0.3200
15     N15     1.3831   -4.7038    1.8526 N.am     1 ZINC000024044436   -0.6600
16     C16     1.9749   -5.5871    2.6809 C.2      1 ZINC000024044436    0.7100
17     O17     1.9232   -6.7774    2.4378 O.2      1 ZINC000024044436   -0.5400
18     N18     2.6240   -5.1510    3.7786 N.am     1 ZINC000024044436   -0.6700
19     C19     3.1499   -6.0711    4.6920 C.ar     1 ZINC000024044436    0.1200
20     C20     3.1625   -5.7751    6.0711 C.ar     1 ZINC000024044436   -0.0200
21     C21     2.6525   -4.5618    6.5602 C.ar     1 ZINC000024044436   -0.1200
22     C22     2.6805   -4.3094    7.8977 C.ar     1 ZINC000024044436   -0.1000
23     C23     3.2093   -5.2386    8.7916 C.ar     1 ZINC000024044436   -0.1300
24     C24     3.7126   -6.4248    8.3528 C.ar     1 ZINC000024044436   -0.0800
25     C25     3.6997   -6.7202    6.9795 C.ar     1 ZINC000024044436   -0.0600
26     C26     4.2117   -7.9383    6.4900 C.ar     1 ZINC000024044436    0.1400
27     O27     4.7307   -8.8538    7.3502 O.3      1 ZINC000024044436   -0.3000
28     C28     5.2315  -10.0660    6.7828 C.3      1 ZINC000024044436    0.0100
29     C29     5.7709  -10.9657    7.8967 C.3      1 ZINC000024044436    0.0600
30     N30     4.6616  -11.3985    8.7569 N.3      1 ZINC000024044436   -0.5300
31     C31     3.5338  -11.8927    7.9536 C.3      1 ZINC000024044436    0.0100
32     C32     2.4268  -12.3876    8.8881 C.3      1 ZINC000024044436    0.0600
33     O33     2.0419  -11.3267    9.7667 O.3      1 ZINC000024044436   -0.3800
34     C34     3.1159  -10.8218   10.5647 C.3      1 ZINC000024044436    0.0600
35     C35     4.2300  -10.3111    9.6471 C.3      1 ZINC000024044436    0.0100
36     C36     4.1847   -8.1969    5.1490 C.ar     1 ZINC000024044436   -0.2000
37     C37     3.6539   -7.2753    4.2516 C.ar     1 ZINC000024044436   -0.0700
38     C38    -0.1527   -2.3200    1.0473 C.ar     1 ZINC000024044436   -0.1500
39     C39    -0.2529   -0.9427    1.0732 C.ar     1 ZINC000024044436   -0.0900
40     H40     0.6247    1.7164   -0.0253 H        1 ZINC000024044436    0.0700
41     H41    -0.8735    1.6210   -0.9817 H        1 ZINC000024044436    0.0700
42     H42    -0.9483    1.5780    0.7961 H        1 ZINC000024044436    0.0700
43     H43    -0.1442   -0.3215   -2.2422 H        1 ZINC000024044436    0.1300
44     H44     0.0438   -2.7748   -2.2988 H        1 ZINC000024044436    0.1400
45     H45    -2.5412   -7.7695   -0.8427 H        1 ZINC000024044436    0.0600
46     H46    -1.9523   -9.3155   -1.4995 H        1 ZINC000024044436    0.0700
47     H47    -1.3430   -8.7232    0.0646 H        1 ZINC000024044436    0.0600
48     H48    -0.2080   -6.7514   -3.5588 H        1 ZINC000024044436    0.0600
49     H49    -1.2895   -8.1640   -3.6154 H        1 ZINC000024044436    0.0600
50     H50    -1.8784   -6.6181   -2.9586 H        1 ZINC000024044436    0.0600
51     H51     1.0017   -8.9104   -0.7779 H        1 ZINC000024044436    0.0600
52     H52     0.3924   -9.5027   -2.3420 H        1 ZINC000024044436    0.0600
53     H53     1.4739   -8.0901   -2.2854 H        1 ZINC000024044436    0.0600
54     H54     0.9720   -7.3156    0.8343 H        1 ZINC000024044436    0.1800
55     H55     1.4244   -3.7543    2.0465 H        1 ZINC000024044436    0.4100
56     H56     2.7265   -4.1993    3.9355 H        1 ZINC000024044436    0.4100
57     H57     2.2404   -3.8323    5.8787 H        1 ZINC000024044436    0.1200
58     H58     2.2876   -3.3754    8.2714 H        1 ZINC000024044436    0.1300
59     H59     3.2202   -5.0141    9.8480 H        1 ZINC000024044436    0.1300
60     H60     4.1199   -7.1352    9.0569 H        1 ZINC000024044436    0.1300
61     H61     4.4271  -10.5808    6.2575 H        1 ZINC000024044436    0.0700
62     H62     6.0337   -9.8349    6.0820 H        1 ZINC000024044436    0.0700
63     H63     6.2520  -11.8394    7.4570 H        1 ZINC000024044436    0.1000
64     H64     6.4971  -10.4117    8.4915 H        1 ZINC000024044436    0.0900
65     H65     3.1498  -11.0855    7.3299 H        1 ZINC000024044436    0.0500
66     H66     3.8701  -12.7140    7.3208 H        1 ZINC000024044436    0.0900
67     H67     1.5659  -12.7020    8.2981 H        1 ZINC000024044436    0.1000
68     H68     2.7945  -13.2300    9.4740 H        1 ZINC000024044436    0.0600
69     H69     2.7534  -10.0038   11.1872 H        1 ZINC000024044436    0.1000
70     H70     3.5037  -11.6187   11.1993 H        1 ZINC000024044436    0.0600
71     H71     5.0743   -9.9779   10.2505 H        1 ZINC000024044436    0.0800
72     H72     3.8571   -9.4786    9.0505 H        1 ZINC000024044436    0.0700
73     H73     4.5787   -9.1323    4.7798 H        1 ZINC000024044436    0.1300
74     H74     3.6442   -7.5034    3.1960 H        1 ZINC000024044436    0.1500
75     H75    -0.1552   -2.8796    1.9710 H        1 ZINC000024044436    0.1200
76     H76    -0.3375   -0.4256    2.0176 H        1 ZINC000024044436    0.1300
@<TRIPOS>BOND
1     1     2     1
2     1     40    1
3     1     41    1
4     1     42    1
5     2     39    ar
6     2     3     ar
7     3     4     ar
8     3     43    1
9     4     5     ar
10    4     44    1
11    5     6     1
12    5     38    ar
13    6     14    1
14    6     7     1
15    7     8     2
16    8     9     1
17    8     13    1
18    9     10    1
19    9     11    1
20    9     12    1
21    10    45    1
22    10    46    1
23    10    47    1
24    11    48    1
25    11    49    1
26    11    50    1
27    12    51    1
28    12    52    1
29    12    53    1
30    13    14    2
31    13    54    1
32    14    15    1
33    15    16    am
34    15    55    1
35    16    17    2
36    16    18    am
37    18    19    1
38    18    56    1
39    19    37    ar
40    19    20    ar
41    20    25    ar
42    20    21    ar
43    21    22    ar
44    21    57    1
45    22    23    ar
46    22    58    1
47    23    24    ar
48    23    59    1
49    24    25    ar
50    24    60    1
51    25    26    ar
52    26    27    1
53    26    36    ar
54    27    28    1
55    28    29    1
56    28    61    1
57    28    62    1
58    29    30    1
59    29    63    1
60    29    64    1
61    30    35    1
62    30    31    1
63    31    32    1
64    31    65    1
65    31    66    1
66    32    33    1
67    32    67    1
68    32    68    1
69    33    34    1
70    34    35    1
71    34    69    1
72    34    70    1
73    35    71    1
74    35    72    1
75    36    37    ar
76    36    73    1
77    37    74    1
78    38    39    ar
79    38    75    1
80    39    76    1
@<TRIPOS>SUBSTRUCTURE
1   ZINC000024044436 1     RESIDUE    1   A     ZIN   1
