@<TRIPOS>MOLECULE
ZINC000070471842
71    75    1     0     0
SMALL
USER_CHARGES
@<TRIPOS>ATOM
1      C1     -4.0692    1.6221    1.3666 C.3      1 ZINC000070471842    0.0300
2      O2     -4.1852    0.1994    1.4327 O.3      1 ZINC000070471842   -0.3100
3      C3     -3.3001   -0.5264    0.7001 C.ar     1 ZINC000070471842    0.1800
4      C4     -3.3602   -1.9114    0.7142 C.ar     1 ZINC000070471842   -0.1900
5      C5     -2.4557   -2.6528   -0.0344 C.ar     1 ZINC000070471842    0.2600
6      N6     -2.5157   -4.0487   -0.0211 N.pl3    1 ZINC000070471842   -0.6300
7      C7     -3.7399   -4.6893    0.1068 C.ar     1 ZINC000070471842    0.3700
8      C8     -3.7866   -6.0981    0.2345 C.ar     1 ZINC000070471842    0.4200
9      N9     -2.6087   -6.8298    0.2304 N.pl3    1 ZINC000070471842   -1.0700
10     S10    -2.6574   -8.4783    0.3795 S.o2     1 ZINC000070471842    2.6400
11     O11    -3.1398   -8.7488    1.6884 O.2      1 ZINC000070471842   -1.0100
12     O12    -3.2852   -8.9692   -0.7970 O.2      1 ZINC000070471842   -1.0100
13     C13    -0.9933   -9.0556    0.3333 C.ar     1 ZINC000070471842   -0.6400
14     C14    -0.4097   -9.3820   -0.8772 C.ar     1 ZINC000070471842    0.0000
15     C15     0.8943   -9.8352   -0.9168 C.ar     1 ZINC000070471842   -0.1700
16     C16     1.6197   -9.9627    0.2607 C.ar     1 ZINC000070471842    0.1800
17     N17     2.9405  -10.4208    0.2241 N.am     1 ZINC000070471842   -0.6700
18     C18     3.4109  -11.2012    1.2172 C.2      1 ZINC000070471842    0.5600
19     O19     2.7158  -11.4367    2.1862 O.2      1 ZINC000070471842   -0.5100
20     C20     4.7721  -11.7708    1.1280 C.ar     1 ZINC000070471842   -0.1000
21     C21     5.5745  -11.4973    0.0191 C.ar     1 ZINC000070471842   -0.1200
22     C22     6.8450  -12.0303   -0.0606 C.ar     1 ZINC000070471842   -0.0900
23     C23     7.3266  -12.8352    0.9549 C.ar     1 ZINC000070471842   -0.0900
24     C24     8.7152  -13.4129    0.8604 C.3      1 ZINC000070471842   -0.1100
25     C25     6.5357  -13.1128    2.0619 C.ar     1 ZINC000070471842    0.1200
26     O26     7.0145  -13.9047    3.0573 O.3      1 ZINC000070471842   -0.3100
27     C27     6.1470  -14.1486    4.1664 C.3      1 ZINC000070471842    0.0200
28     C28     5.2616  -12.5790    2.1547 C.ar     1 ZINC000070471842   -0.1400
29     C29     1.0307   -9.6336    1.4747 C.ar     1 ZINC000070471842   -0.1400
30     C30    -0.2720   -9.1760    1.5069 C.ar     1 ZINC000070471842    0.0000
31     N31    -4.9418   -6.7183    0.3575 N.ar     1 ZINC000070471842   -0.5700
32     C32    -6.0810   -6.0106    0.3614 C.ar     1 ZINC000070471842    0.1200
33     C33    -7.3249   -6.6487    0.4918 C.ar     1 ZINC000070471842   -0.1100
34     C34    -8.4680   -5.9078    0.4934 C.ar     1 ZINC000070471842   -0.1100
35     C35    -8.4222   -4.5220    0.3667 C.ar     1 ZINC000070471842   -0.1500
36     C36    -7.2330   -3.8703    0.2379 C.ar     1 ZINC000070471842   -0.0700
37     C37    -6.0343   -4.6016    0.2332 C.ar     1 ZINC000070471842    0.0400
38     N38    -4.8510   -3.9821    0.1141 N.ar     1 ZINC000070471842   -0.4800
39     C39    -1.4917   -2.0061   -0.7966 C.ar     1 ZINC000070471842   -0.2300
40     C40    -1.4331   -0.6211   -0.8095 C.ar     1 ZINC000070471842    0.1800
41     O41    -0.4899    0.0119   -1.5553 O.3      1 ZINC000070471842   -0.3200
42     C42    -0.4875    1.4406   -1.5218 C.3      1 ZINC000070471842    0.0300
43     C43    -2.3406    0.1187   -0.0659 C.ar     1 ZINC000070471842   -0.3300
44     H44    -4.8334    2.0785    1.9957 H        1 ZINC000070471842    0.1000
45     H45    -3.0822    1.9229    1.7178 H        1 ZINC000070471842    0.0500
46     H46    -4.2037    1.9501    0.3359 H        1 ZINC000070471842    0.0500
47     H47    -4.1100   -2.4135    1.3076 H        1 ZINC000070471842    0.1500
48     H48    -1.7016   -4.5700   -0.1014 H        1 ZINC000070471842    0.4300
49     H49    -0.9743   -9.2827   -1.7924 H        1 ZINC000070471842    0.1400
50     H50     1.3494  -10.0906   -1.8624 H        1 ZINC000070471842    0.1300
51     H51     3.5181  -10.1770   -0.5161 H        1 ZINC000070471842    0.4100
52     H52     5.2012  -10.8692   -0.7762 H        1 ZINC000070471842    0.1300
53     H53     7.4647  -11.8182   -0.9193 H        1 ZINC000070471842    0.1400
54     H54     9.4271  -12.7240    1.3152 H        1 ZINC000070471842    0.0700
55     H55     8.7479  -14.3678    1.3850 H        1 ZINC000070471842    0.0700
56     H56     8.9751  -13.5647   -0.1872 H        1 ZINC000070471842    0.0700
57     H57     5.8911  -13.2021    4.6426 H        1 ZINC000070471842    0.0600
58     H58     5.2375  -14.6365    3.8158 H        1 ZINC000070471842    0.0600
59     H59     6.6506  -14.7933    4.8867 H        1 ZINC000070471842    0.1000
60     H60     4.6456  -12.7940    3.0154 H        1 ZINC000070471842    0.1400
61     H61     1.5920   -9.7319    2.3922 H        1 ZINC000070471842    0.1400
62     H62    -0.7305   -8.9196    2.4505 H        1 ZINC000070471842    0.1400
63     H63    -7.3752   -7.7230    0.5902 H        1 ZINC000070471842    0.1200
64     H64    -9.4229   -6.4022    0.5939 H        1 ZINC000070471842    0.1200
65     H65    -9.3420   -3.9561    0.3703 H        1 ZINC000070471842    0.1200
66     H66    -7.2121   -2.7949    0.1405 H        1 ZINC000070471842    0.1200
67     H67    -0.7876   -2.5820   -1.3789 H        1 ZINC000070471842    0.1300
68     H68     0.3128    1.8176   -2.1585 H        1 ZINC000070471842    0.1000
69     H69    -1.4457    1.8141   -1.8829 H        1 ZINC000070471842    0.0500
70     H70    -0.3278    1.7797   -0.4983 H        1 ZINC000070471842    0.0500
71     H71    -2.2946    1.1977   -0.0767 H        1 ZINC000070471842    0.1300
@<TRIPOS>BOND
1     1     2     1
2     1     44    1
3     1     45    1
4     1     46    1
5     2     3     1
6     3     43    ar
7     3     4     ar
8     4     5     ar
9     4     47    1
10    5     6     1
11    5     39    ar
12    6     7     1
13    6     48    1
14    7     38    ar
15    7     8     ar
16    8     9     1
17    8     31    ar
18    9     10    1
19    10    11    2
20    10    12    2
21    10    13    1
22    13    30    ar
23    13    14    ar
24    14    15    ar
25    14    49    1
26    15    16    ar
27    15    50    1
28    16    17    1
29    16    29    ar
30    17    18    am
31    17    51    1
32    18    19    2
33    18    20    1
34    20    28    ar
35    20    21    ar
36    21    22    ar
37    21    52    1
38    22    23    ar
39    22    53    1
40    23    24    1
41    23    25    ar
42    24    54    1
43    24    55    1
44    24    56    1
45    25    26    1
46    25    28    ar
47    26    27    1
48    27    57    1
49    27    58    1
50    27    59    1
51    28    60    1
52    29    30    ar
53    29    61    1
54    30    62    1
55    31    32    ar
56    32    37    ar
57    32    33    ar
58    33    34    ar
59    33    63    1
60    34    35    ar
61    34    64    1
62    35    36    ar
63    35    65    1
64    36    37    ar
65    36    66    1
66    37    38    ar
67    39    40    ar
68    39    67    1
69    40    41    1
70    40    43    ar
71    41    42    1
72    42    68    1
73    42    69    1
74    42    70    1
75    43    71    1
@<TRIPOS>SUBSTRUCTURE
1   ZINC000070471842 1     RESIDUE    1   A     ZIN   1
