@<TRIPOS>MOLECULE
ZINC000014711695
41    44    1     0     0
SMALL
USER_CHARGES
@<TRIPOS>ATOM
1      C1     -0.0187    1.5258    0.0104 C.3      1 ZINC000014711695   -0.1700
2      C2      0.0021   -0.0041    0.0020 C.3      1 ZINC000014711695    0.1400
3      C3     -1.4351   -0.5284    0.0259 C.3      1 ZINC000014711695   -0.1400
4      C4      0.6847   -0.4848   -1.2513 C.2      1 ZINC000014711695   -0.1900
5      C5      2.0038   -0.6675   -1.2630 C.2      1 ZINC000014711695   -0.0800
6      C6      2.7541   -0.3988   -0.0179 C.ar     1 ZINC000014711695   -0.1600
7      C7      4.1397   -0.2342   -0.0232 C.ar     1 ZINC000014711695    0.1500
8      O8      4.8325   -0.3185   -1.1886 O.3      1 ZINC000014711695   -0.4900
9      C9      4.8067    0.0166    1.1680 C.ar     1 ZINC000014711695   -0.1700
10     C10     4.1074    0.1032    2.3551 C.ar     1 ZINC000014711695   -0.0500
11     C11     2.7218   -0.0596    2.3731 C.ar     1 ZINC000014711695   -0.0400
12     C12     1.9770    0.0349    3.6524 C.2      1 ZINC000014711695   -0.2500
13     C13     1.2316    1.1306    3.9472 C.2      1 ZINC000014711695    0.1300
14     O14     0.5315    1.2528    5.0759 O.3      1 ZINC000014711695   -0.2200
15     C15     0.7622    0.4504    6.1325 C.ar     1 ZINC000014711695    0.1900
16     C16     0.2775    0.7858    7.3891 C.ar     1 ZINC000014711695   -0.2900
17     C17     0.5099   -0.0493    8.4702 C.ar     1 ZINC000014711695    0.3200
18     O18     0.0322    0.2900    9.6947 O.3      1 ZINC000014711695   -0.7000
19     C19     1.2264   -1.2311    8.3155 C.ar     1 ZINC000014711695   -0.2900
20     C20     1.7214   -1.5831    7.0731 C.ar     1 ZINC000014711695    0.2200
21     O21     2.4180   -2.7370    6.9160 O.3      1 ZINC000014711695   -0.4900
22     C22     1.4970   -0.7394    5.9788 C.ar     1 ZINC000014711695   -0.3700
23     C23     2.0199   -1.0625    4.6391 C.2      1 ZINC000014711695    0.4400
24     O24     2.4636   -2.1646    4.3653 O.2      1 ZINC000014711695   -0.4900
25     C25     2.0411   -0.3105    1.1838 C.ar     1 ZINC000014711695    0.1600
26     O26     0.6937   -0.4723    1.1607 O.3      1 ZINC000014711695   -0.2900
27     H27     1.0039    1.9031    0.0027 H        1 ZINC000014711695    0.0600
28     H28    -0.5459    1.8868   -0.8726 H        1 ZINC000014711695    0.0700
29     H29    -0.5289    1.8773    0.9072 H        1 ZINC000014711695    0.0700
30     H30    -1.9688   -0.1655   -0.8525 H        1 ZINC000014711695    0.0800
31     H31    -1.4244   -1.6183    0.0199 H        1 ZINC000014711695    0.0700
32     H32    -1.9359   -0.1748    0.9271 H        1 ZINC000014711695    0.0700
33     H33     0.1046   -0.6809   -2.1409 H        1 ZINC000014711695    0.1300
34     H34     2.5106   -1.0026   -2.1559 H        1 ZINC000014711695    0.1300
35     H35     4.9294    0.5255   -1.6505 H        1 ZINC000014711695    0.3900
36     H36     5.8791    0.1443    1.1662 H        1 ZINC000014711695    0.1300
37     H37     4.6365    0.2981    3.2762 H        1 ZINC000014711695    0.1400
38     H38     1.2045    1.9416    3.2345 H        1 ZINC000014711695    0.1800
39     H39    -0.2817    1.6998    7.5247 H        1 ZINC000014711695    0.1200
40     H40     1.3966   -1.8743    9.1662 H        1 ZINC000014711695    0.1100
41     H41     1.8686   -3.5008    6.6927 H        1 ZINC000014711695    0.3900
@<TRIPOS>BOND
1     1     2     1
2     1     27    1
3     1     28    1
4     1     29    1
5     2     26    1
6     2     3     1
7     2     4     1
8     3     30    1
9     3     31    1
10    3     32    1
11    4     5     2
12    4     33    1
13    5     6     1
14    5     34    1
15    6     25    ar
16    6     7     ar
17    7     8     1
18    7     9     ar
19    8     35    1
20    9     10    ar
21    9     36    1
22    10    11    ar
23    10    37    1
24    11    12    1
25    11    25    ar
26    12    23    1
27    12    13    2
28    13    14    1
29    13    38    1
30    14    15    1
31    15    22    ar
32    15    16    ar
33    16    17    ar
34    16    39    1
35    17    18    1
36    17    19    ar
37    19    20    ar
38    19    40    1
39    20    21    1
40    20    22    ar
41    21    41    1
42    22    23    1
43    23    24    2
44    25    26    1
@<TRIPOS>SUBSTRUCTURE
1   ZINC000014711695 1     RESIDUE    1   A     ZIN   1
