@<TRIPOS>MOLECULE
ZINC000000492516
44    46    1     0     0
SMALL
USER_CHARGES
@<TRIPOS>ATOM
1      C1     -0.0184    1.5028    0.0103 C.3      1 ZINC000000492516   -0.1000
2      C2      0.0021   -0.0041    0.0020 C.2      1 ZINC000000492516    0.1200
3      C3      0.0084   -0.7967   -1.0937 C.2      1 ZINC000000492516   -0.2600
4      C4      0.0282   -2.1287   -0.6631 C.2      1 ZINC000000492516    0.0900
5      C5      0.0418   -3.3435   -1.5548 C.3      1 ZINC000000492516   -0.0700
6      N6      0.0337   -2.1394    0.6446 N.2      1 ZINC000000492516   -0.2600
7      N7      0.0234   -0.8126    1.0944 N.pl3    1 ZINC000000492516   -0.3200
8      C8      0.0251   -0.3959    2.4255 C.ar     1 ZINC000000492516    0.6100
9      N9      0.0095    0.8991    2.6954 N.ar     1 ZINC000000492516   -0.5700
10     C10     0.0105    1.3346    3.9469 C.ar     1 ZINC000000492516    0.2300
11     C11    -0.0079    2.8129    4.2392 C.3      1 ZINC000000492516   -0.1100
12     C12     0.0281    0.4187    4.9805 C.ar     1 ZINC000000492516   -0.3100
13     C13     0.0443   -0.9417    4.6639 C.ar     1 ZINC000000492516    0.4700
14     N14     0.0618   -1.8969    5.6671 N.pl3    1 ZINC000000492516   -0.7000
15     C15     0.0634   -1.4832    7.0725 C.3      1 ZINC000000492516    0.1500
16     C16    -1.3746   -1.2374    7.5334 C.3      1 ZINC000000492516   -0.1400
17     C17    -1.3729   -0.8054    9.0011 C.3      1 ZINC000000492516   -0.1200
18     C18    -0.7445   -1.9074    9.8564 C.3      1 ZINC000000492516   -0.1200
19     C19     0.6935   -2.1532    9.3955 C.3      1 ZINC000000492516   -0.1200
20     C20     0.6918   -2.5852    7.9278 C.3      1 ZINC000000492516   -0.1300
21     N21     0.0368   -1.3060    3.3858 N.ar     1 ZINC000000492516   -0.5800
22     H22     1.0042    1.8801    0.0026 H        1 ZINC000000492516    0.0800
23     H23    -0.5455    1.8639   -0.8728 H        1 ZINC000000492516    0.0800
24     H24    -0.5286    1.8543    0.9071 H        1 ZINC000000492516    0.1000
25     H25    -0.0007   -0.4612   -2.1202 H        1 ZINC000000492516    0.1600
26     H26     1.0727   -3.6222   -1.7734 H        1 ZINC000000492516    0.0800
27     H27    -0.4589   -4.1700   -1.0506 H        1 ZINC000000492516    0.0800
28     H28    -0.4784   -3.1169   -2.4855 H        1 ZINC000000492516    0.0800
29     H29    -1.0399    3.1554    4.3153 H        1 ZINC000000492516    0.0900
30     H30     0.5085    3.0037    5.1799 H        1 ZINC000000492516    0.0800
31     H31     0.4943    3.3488    3.4338 H        1 ZINC000000492516    0.0900
32     H32     0.0297    0.7467    6.0095 H        1 ZINC000000492516    0.1500
33     H33     0.0730   -2.8397    5.4390 H        1 ZINC000000492516    0.4100
34     H34     0.6415   -0.5654    7.1804 H        1 ZINC000000492516    0.0900
35     H35    -1.8223   -0.4523    6.9240 H        1 ZINC000000492516    0.0700
36     H36    -1.9526   -2.1552    7.4255 H        1 ZINC000000492516    0.0700
37     H37    -0.7949    0.1124    9.1090 H        1 ZINC000000492516    0.0700
38     H38    -2.3974   -0.6302    9.3295 H        1 ZINC000000492516    0.0700
39     H39    -0.7433   -1.5996   10.9021 H        1 ZINC000000492516    0.0700
40     H40    -1.3226   -2.8252    9.7485 H        1 ZINC000000492516    0.0600
41     H41     1.2716   -1.2354    9.5034 H        1 ZINC000000492516    0.0700
42     H42     1.1412   -2.9383   10.0049 H        1 ZINC000000492516    0.0700
43     H43     0.1138   -3.5030    7.8199 H        1 ZINC000000492516    0.0700
44     H44     1.7163   -2.7604    7.5994 H        1 ZINC000000492516    0.0700
@<TRIPOS>BOND
1     1     2     1
2     1     22    1
3     1     23    1
4     1     24    1
5     2     7     1
6     2     3     2
7     3     4     1
8     3     25    1
9     4     5     1
10    4     6     2
11    5     26    1
12    5     27    1
13    5     28    1
14    6     7     1
15    7     8     1
16    8     21    ar
17    8     9     ar
18    9     10    ar
19    10    11    1
20    10    12    ar
21    11    29    1
22    11    30    1
23    11    31    1
24    12    13    ar
25    12    32    1
26    13    14    1
27    13    21    ar
28    14    15    1
29    14    33    1
30    15    20    1
31    15    16    1
32    15    34    1
33    16    17    1
34    16    35    1
35    16    36    1
36    17    18    1
37    17    37    1
38    17    38    1
39    18    19    1
40    18    39    1
41    18    40    1
42    19    20    1
43    19    41    1
44    19    42    1
45    20    43    1
46    20    44    1
@<TRIPOS>SUBSTRUCTURE
1   ZINC000000492516 1     RESIDUE    1   A     ZIN   1
