@<TRIPOS>MOLECULE
ZINC000000001064
17    18    1     0     0
SMALL
USER_CHARGES
@<TRIPOS>ATOM
1      O1      0.0021   -0.0041    0.0020 O.3      1 ZINC000000001064   -0.6200
2      C2     -0.0164    1.3547    0.0095 C.ar     1 ZINC000000001064    0.3400
3      C3     -1.2440    2.0478    0.0308 C.ar     1 ZINC000000001064    0.0500
4      N4     -2.4068    1.3894    0.0446 N.ar     1 ZINC000000001064   -0.4100
5      C5     -3.5514    2.0280    0.0648 C.ar     1 ZINC000000001064    0.0500
6      C6     -3.6137    3.4198    0.0730 C.ar     1 ZINC000000001064   -0.1500
7      C7     -2.4620    4.1538    0.0598 C.ar     1 ZINC000000001064   -0.1100
8      C8     -1.2349    3.4644    0.0381 C.ar     1 ZINC000000001064   -0.0100
9      C9     -0.0109    4.1535    0.0237 C.ar     1 ZINC000000001064   -0.2300
10     Br10    0.0121    6.0444    0.0340 Br       1 ZINC000000001064   -0.0900
11     C11     1.1597    3.4566    0.0027 C.ar     1 ZINC000000001064    0.0400
12     C12     1.1635    2.0638    0.0020 C.ar     1 ZINC000000001064   -0.2800
13     Br13    2.8105    1.1350   -0.0268 Br       1 ZINC000000001064   -0.0800
14     H14    -4.4701    1.4604    0.0750 H        1 ZINC000000001064    0.1500
15     H15    -4.5719    3.9179    0.0893 H        1 ZINC000000001064    0.1200
16     H16    -2.4920    5.2334    0.0655 H        1 ZINC000000001064    0.1300
17     H17     2.0978    3.9917   -0.0087 H        1 ZINC000000001064    0.1200
@<TRIPOS>BOND
1     1     2     1
2     2     12    ar
3     2     3     ar
4     3     8     ar
5     3     4     ar
6     4     5     ar
7     5     6     ar
8     5     14    1
9     6     7     ar
10    6     15    1
11    7     8     ar
12    7     16    1
13    8     9     ar
14    9     10    1
15    9     11    ar
16    11    12    ar
17    11    17    1
18    12    13    1
@<TRIPOS>SUBSTRUCTURE
1   ZINC000000001064 1     RESIDUE    1   A     ZIN   1
