@<TRIPOS>MOLECULE
ZINC000013358271
61    62    1     0     0
SMALL
USER_CHARGES
@<TRIPOS>ATOM
1      C1     -0.0438    2.7788    0.7323 C.3      1 ZINC000013358271    0.0300
2      O2     -0.2934    1.3882    0.9471 O.3      1 ZINC000013358271   -0.3100
3      C3     -1.5898    0.9882    0.9492 C.ar     1 ZINC000013358271    0.1200
4      C4     -2.6027    1.9204    0.7418 C.ar     1 ZINC000013358271   -0.2100
5      C5     -3.9107    1.5303    0.7417 C.ar     1 ZINC000013358271   -0.0200
6      C6     -4.9995    2.5475    0.5161 C.3      1 ZINC000013358271   -0.0700
7      C7     -5.5374    3.0266    1.8659 C.3      1 ZINC000013358271   -0.0800
8      C8     -6.6262    4.0438    1.6404 C.ar     1 ZINC000013358271   -0.0700
9      C9     -6.3092    5.3860    1.5454 C.ar     1 ZINC000013358271   -0.1200
10     C10    -7.3079    6.3190    1.3385 C.ar     1 ZINC000013358271   -0.1300
11     C11    -8.6236    5.9099    1.2262 C.ar     1 ZINC000013358271   -0.1300
12     C12    -8.9404    4.5677    1.3204 C.ar     1 ZINC000013358271   -0.1200
13     C13    -7.9412    3.6342    1.5229 C.ar     1 ZINC000013358271   -0.1100
14     C14    -4.2420    0.1861    0.9503 C.ar     1 ZINC000013358271   -0.1600
15     C15    -5.6489   -0.2357    0.9500 C.2      1 ZINC000013358271    0.5400
16     O16    -6.1657   -0.6418   -0.0823 O.co2    1 ZINC000013358271   -0.6900
17     O17    -6.3042   -0.1812    1.9821 O.co2    1 ZINC000013358271   -0.6800
18     C18    -3.2220   -0.7579    1.1596 C.ar     1 ZINC000013358271    0.1500
19     O19    -3.5313   -2.0626    1.3623 O.3      1 ZINC000013358271   -0.4800
20     C20    -1.8996   -0.3490    1.1524 C.ar     1 ZINC000013358271   -0.1400
21     C21    -0.7982   -1.3531    1.3753 C.3      1 ZINC000013358271   -0.0400
22     C22    -0.3650   -1.9260    0.0505 C.2      1 ZINC000013358271   -0.1400
23     C23     0.8719   -1.7774   -0.3544 C.2      1 ZINC000013358271   -0.1400
24     C24     1.8553   -1.0119    0.4929 C.3      1 ZINC000013358271   -0.1200
25     C25     1.3115   -2.3719   -1.6675 C.3      1 ZINC000013358271   -0.0700
26     C26     1.2098   -1.3124   -2.7666 C.3      1 ZINC000013358271   -0.0900
27     C27     1.6494   -1.9069   -4.0797 C.2      1 ZINC000013358271   -0.1700
28     C28     0.8072   -1.9794   -5.0806 C.2      1 ZINC000013358271   -0.1400
29     C29    -0.6008   -1.4671   -4.9191 C.3      1 ZINC000013358271   -0.1200
30     C30     1.2464   -2.5750   -6.3933 C.3      1 ZINC000013358271   -0.1200
31     H31     1.0303    2.9628    0.7546 H        1 ZINC000013358271    0.0900
32     H32    -0.4429    3.0739   -0.2381 H        1 ZINC000013358271    0.0500
33     H33    -0.5284    3.3603    1.5166 H        1 ZINC000013358271    0.0500
34     H34    -2.3522    2.9584    0.5804 H        1 ZINC000013358271    0.1200
35     H35    -4.5953    3.3960   -0.0358 H        1 ZINC000013358271    0.0600
36     H36    -5.8081    2.0933   -0.0567 H        1 ZINC000013358271    0.0800
37     H37    -5.9416    2.1780    2.4179 H        1 ZINC000013358271    0.1000
38     H38    -4.7289    3.4807    2.4388 H        1 ZINC000013358271    0.0600
39     H39    -5.2813    5.7056    1.6331 H        1 ZINC000013358271    0.1200
40     H40    -7.0604    7.3677    1.2649 H        1 ZINC000013358271    0.1200
41     H41    -9.4040    6.6390    1.0653 H        1 ZINC000013358271    0.1200
42     H42    -9.9684    4.2480    1.2330 H        1 ZINC000013358271    0.1200
43     H43    -8.1888    2.5855    1.5965 H        1 ZINC000013358271    0.1300
44     H44    -3.5772   -2.5866    0.5509 H        1 ZINC000013358271    0.3900
45     H45     0.0495   -0.8624    1.8536 H        1 ZINC000013358271    0.0800
46     H46    -1.1626   -2.1557    2.0166 H        1 ZINC000013358271    0.0800
47     H47    -1.0744   -2.4591   -0.5651 H        1 ZINC000013358271    0.1000
48     H48     2.3224   -1.6886    1.2085 H        1 ZINC000013358271    0.0600
49     H49     2.6217   -0.5736   -0.1463 H        1 ZINC000013358271    0.0500
50     H50     1.3331   -0.2197    1.0295 H        1 ZINC000013358271    0.0800
51     H51     2.3438   -2.7119   -1.5850 H        1 ZINC000013358271    0.0600
52     H52     0.6696   -3.2168   -1.9169 H        1 ZINC000013358271    0.0600
53     H53     0.1774   -0.9725   -2.8491 H        1 ZINC000013358271    0.0800
54     H54     1.8517   -0.4675   -2.5173 H        1 ZINC000013358271    0.0700
55     H55     2.6587   -2.2733   -4.1957 H        1 ZINC000013358271    0.1000
56     H56    -0.6188   -0.3918   -5.0969 H        1 ZINC000013358271    0.0700
57     H57    -1.2531   -1.9649   -5.6366 H        1 ZINC000013358271    0.0600
58     H58    -0.9489   -1.6739   -3.9071 H        1 ZINC000013358271    0.0700
59     H59     1.0512   -3.6474   -6.3892 H        1 ZINC000013358271    0.0600
60     H60     0.6925   -2.1080   -7.2077 H        1 ZINC000013358271    0.0600
61     H61     2.3133   -2.4005   -6.5326 H        1 ZINC000013358271    0.0600
@<TRIPOS>BOND
1     1     2     1
2     1     31    1
3     1     32    1
4     1     33    1
5     2     3     1
6     3     20    ar
7     3     4     ar
8     4     5     ar
9     4     34    1
10    5     6     1
11    5     14    ar
12    6     7     1
13    6     35    1
14    6     36    1
15    7     8     1
16    7     37    1
17    7     38    1
18    8     13    ar
19    8     9     ar
20    9     10    ar
21    9     39    1
22    10    11    ar
23    10    40    1
24    11    12    ar
25    11    41    1
26    12    13    ar
27    12    42    1
28    13    43    1
29    14    15    1
30    14    18    ar
31    15    16    ar
32    15    17    ar
33    18    19    1
34    18    20    ar
35    19    44    1
36    20    21    1
37    21    22    1
38    21    45    1
39    21    46    1
40    22    23    2
41    22    47    1
42    23    24    1
43    23    25    1
44    24    48    1
45    24    49    1
46    24    50    1
47    25    26    1
48    25    51    1
49    25    52    1
50    26    27    1
51    26    53    1
52    26    54    1
53    27    28    2
54    27    55    1
55    28    29    1
56    28    30    1
57    29    56    1
58    29    57    1
59    29    58    1
60    30    59    1
61    30    60    1
62    30    61    1
@<TRIPOS>SUBSTRUCTURE
1   ZINC000013358271 1     RESIDUE    1   A     ZIN   1
