@<TRIPOS>MOLECULE
ZINC000000898159
  40   44    0    0    0
SMALL
USER_CHARGES
NO_NAME
@<TRIPOS>ATOM
    1 C1       -0.0178     1.4608     0.0101 C.3    1 <0>       0.0800
    2 N2        0.0021    -0.0041     0.0020 N.pl3  1 <0>      -0.6200
    3 C3        0.0049    -0.6499    -1.2197 C.ar   1 <0>       0.2500
    4 C4       -0.0790     0.0663    -2.4063 C.ar   1 <0>      -0.2000
    5 C5       -0.0930    -0.6014    -3.6145 C.ar   1 <0>      -0.0400
    6 C6       -0.0245    -1.9847    -3.6564 C.ar   1 <0>      -0.1800
    7 C7        0.0664    -2.7132    -2.4887 C.ar   1 <0>      -0.0100
    8 C8        0.0895    -2.0510    -1.2628 C.ar   1 <0>      -0.2100
    9 C9        0.2149    -2.7928     0.0024 C.2    1 <0>       0.5800
   10 O10       0.2871    -4.0066    -0.0108 O.2    1 <0>      -0.5300
   11 N11       0.2502    -2.1319     1.1724 N.am   1 <0>      -0.6100
   12 C12       0.5535    -2.8814     2.4050 C.3    1 <0>       0.1100
   13 C13       1.8807    -2.3727     2.9803 C.3    1 <0>      -0.0700
   14 C14       1.8853    -0.8660     2.9538 C.2    1 <0>      -0.1300
   15 C15       1.0639    -0.1088     2.1924 C.2    1 <0>       0.0200
   16 N16       1.3301     1.2182     2.3971 N.pl3  1 <0>      -0.5800
   17 C17       2.3367     1.3518     3.3099 C.ar   1 <0>       0.1100
   18 C18       2.9645     2.4712     3.8513 C.ar   1 <0>      -0.1300
   19 C19       3.9697     2.2409     4.7749 C.ar   1 <0>      -0.0900
   20 C20       4.3468     0.9635     5.1540 C.ar   1 <0>      -0.1500
   21 C21       3.7463    -0.1582     4.6369 C.ar   1 <0>      -0.0600
   22 C22       2.7278     0.0452     3.7011 C.ar   1 <0>      -0.1100
   23 C23       0.0235    -0.6944     1.2743 C.3    1 <0>       0.4700
   24 H24      -0.9522    -0.5465     1.7370 H      1 <0>       0.0800
   25 H25       1.0048     1.8381     0.0023 H      1 <0>       0.0600
   26 H26      -0.5450     1.8219    -0.8730 H      1 <0>       0.0900
   27 H27      -0.5280     1.8123     0.9069 H      1 <0>       0.0700
   28 H28      -0.1337     1.1447    -2.3840 H      1 <0>       0.1300
   29 H29      -0.1582    -0.0406    -4.5352 H      1 <0>       0.1300
   30 H30      -0.0429    -2.4950    -4.6080 H      1 <0>       0.1300
   31 H31       0.1192    -3.7914    -2.5244 H      1 <0>       0.1400
   32 H32      -0.2432    -2.7259     3.1324 H      1 <0>       0.0800
   33 H33       0.6384    -3.9435     2.1751 H      1 <0>       0.1100
   34 H34       1.9890    -2.7194     4.0081 H      1 <0>       0.0900
   35 H35       2.7073    -2.7503     2.3784 H      1 <0>       0.0800
   36 H36       0.8727     1.9531     1.9593 H      1 <0>       0.4100
   37 H37       2.6805     3.4727     3.5635 H      1 <0>       0.1300
   38 H38       4.4775     3.0865     5.2148 H      1 <0>       0.1200
   39 H39       5.1380     0.8455     5.8796 H      1 <0>       0.1200
   40 H40       4.0472    -1.1507     4.9384 H      1 <0>       0.1300
@<TRIPOS>BOND
   1    1    2 1
   2    1   25 1
   3    1   26 1
   4    1   27 1
   5    2   23 1
   6    2    3 1
   7    3    8 ar
   8    3    4 ar
   9    4    5 ar
  10    4   28 1
  11    5    6 ar
  12    5   29 1
  13    6    7 ar
  14    6   30 1
  15    7    8 ar
  16    7   31 1
  17    8    9 1
  18    9   10 2
  19    9   11 am
  20   11   23 1
  21   11   12 1
  22   12   13 1
  23   12   32 1
  24   12   33 1
  25   13   14 1
  26   13   34 1
  27   13   35 1
  28   14   22 1
  29   14   15 2
  30   15   16 1
  31   15   23 1
  32   16   17 1
  33   16   36 1
  34   17   22 ar
  35   17   18 ar
  36   18   19 ar
  37   18   37 1
  38   19   20 ar
  39   19   38 1
  40   20   21 ar
  41   20   39 1
  42   21   22 ar
  43   21   40 1
  44   23   24 1
