@<TRIPOS>MOLECULE
ZINC000067906323
94    99    1     0     0
SMALL
USER_CHARGES
@<TRIPOS>ATOM
1      C1     -2.1232    0.9120    0.4717 C.3      1 ZINC000067906323   -0.1200
2      C2     -1.7868   -0.5303    0.7504 C.ar     1 ZINC000067906323    0.2300
3      N3     -2.3498   -1.4808    0.0344 N.ar     1 ZINC000067906323   -0.4900
4      C4     -2.0909   -2.7600    0.2357 C.ar     1 ZINC000067906323    0.2300
5      C5     -2.7714   -3.7960   -0.6214 C.3      1 ZINC000067906323   -0.1800
6      C6     -1.2084   -3.1658    1.2160 C.ar     1 ZINC000067906323   -0.7800
7      P7     -0.8681   -4.9290    1.4726 P.3      1 ZINC000067906323    2.4400
8      O8     -0.4306   -5.1664    2.8664 O.2      1 ZINC000067906323   -1.0000
9      O9     -2.1922   -5.8101    1.1393 O.3      1 ZINC000067906323   -0.7200
10     C10    -2.0382   -7.2024    0.8065 C.3      1 ZINC000067906323    0.1200
11     H11    -2.9971   -7.6086    0.4850 H        1 ZINC000067906323    0.1300
12     C12    -1.5425   -7.9702    2.0336 C.3      1 ZINC000067906323   -0.2100
13     C13    -1.0206   -7.3342   -0.3273 C.3      1 ZINC000067906323   -0.2200
14     C14     0.3558   -6.8403    0.1198 C.3      1 ZINC000067906323    0.1200
15     H15     0.6718   -7.3929    1.0046 H        1 ZINC000067906323    0.0900
16     C16     1.3679   -7.0561   -1.0071 C.3      1 ZINC000067906323   -0.1500
17     O17     0.2721   -5.4374    0.4324 O.3      1 ZINC000067906323   -0.7300
18     C18    -0.5804   -2.2020    2.0075 C.ar     1 ZINC000067906323    0.1400
19     C19     0.3739   -2.5926    3.0713 C.ar     1 ZINC000067906323   -0.1400
20     C20    -0.0667   -3.3270    4.1717 C.ar     1 ZINC000067906323    0.0800
21     C21     0.8271   -3.6883    5.1592 C.ar     1 ZINC000067906323   -0.1300
22     C22     2.1575   -3.3232    5.0591 C.ar     1 ZINC000067906323   -0.0300
23     C23     2.6006   -2.5945    3.9695 C.ar     1 ZINC000067906323   -0.0700
24     N24     4.0259   -2.2077    3.8700 N.pl3    1 ZINC000067906323    0.0300
25     O25     4.8073   -2.5309    4.7466 O.2      1 ZINC000067906323   -0.1600
26     O26     4.4173   -1.5663    2.9114 O.2      1 ZINC000067906323   -0.1600
27     C27     1.7178   -2.2323    2.9731 C.ar     1 ZINC000067906323   -0.0200
28     C28    -0.8775   -0.8445    1.7609 C.ar     1 ZINC000067906323   -0.1800
29     C29    -0.2469    0.2207    2.5625 C.2      1 ZINC000067906323    0.5200
30     O30     0.8067    0.7081    2.2038 O.2      1 ZINC000067906323   -0.4800
31     O31    -0.8391    0.6535    3.6928 O.3      1 ZINC000067906323   -0.3300
32     C32    -0.1618    1.7044    4.4312 C.3      1 ZINC000067906323    0.0600
33     C33    -0.9784    2.0615    5.6748 C.3      1 ZINC000067906323    0.0600
34     N34    -1.0674    0.8892    6.5555 N.3      1 ZINC000067906323   -0.5300
35     C35    -2.0949    1.0831    7.5883 C.3      1 ZINC000067906323    0.0300
36     C36    -2.1972   -0.1805    8.4454 C.3      1 ZINC000067906323    0.0000
37     N37    -0.8965   -0.4554    9.0700 N.4      1 ZINC000067906323   -0.3800
38     H38    -0.6259    0.3301    9.6426 H        1 ZINC000067906323    0.4100
39     C39    -0.9998   -1.6584    9.9066 C.3      1 ZINC000067906323    0.1300
40     C40     0.3346   -1.9406   10.5476 C.ar     1 ZINC000067906323   -0.1300
41     C41     1.1024   -0.8987   11.0331 C.ar     1 ZINC000067906323   -0.1200
42     C42     2.3264   -1.1576   11.6210 C.ar     1 ZINC000067906323   -0.1000
43     C43     2.7824   -2.4585   11.7238 C.ar     1 ZINC000067906323   -0.0900
44     C44     2.0142   -3.5005   11.2391 C.ar     1 ZINC000067906323   -0.1000
45     C45     0.7883   -3.2420   10.6550 C.ar     1 ZINC000067906323   -0.0900
46     C46    -2.0353   -1.4371   10.9789 C.ar     1 ZINC000067906323   -0.1300
47     C47    -2.1245   -0.2110   11.6112 C.ar     1 ZINC000067906323   -0.1200
48     C48    -3.0743   -0.0080   12.5947 C.ar     1 ZINC000067906323   -0.1000
49     C49    -3.9353   -1.0309   12.9458 C.ar     1 ZINC000067906323   -0.0900
50     C50    -3.8468   -2.2567   12.3129 C.ar     1 ZINC000067906323   -0.1000
51     C51    -2.8998   -2.4583   11.3263 C.ar     1 ZINC000067906323   -0.0900
52     C52     0.1140   -0.6711    8.0260 C.3      1 ZINC000067906323    0.0000
53     C53     0.2356    0.5884    7.1655 C.3      1 ZINC000067906323    0.0200
54     H54    -1.4338    1.3083   -0.2738 H        1 ZINC000067906323    0.1000
55     H55    -3.1440    0.9808    0.0956 H        1 ZINC000067906323    0.1000
56     H56    -2.0352    1.4899    1.3916 H        1 ZINC000067906323    0.0800
57     H57    -2.1205   -4.0634   -1.4538 H        1 ZINC000067906323    0.1000
58     H58    -2.9790   -4.6831   -0.0231 H        1 ZINC000067906323    0.1200
59     H59    -3.7069   -3.3908   -1.0072 H        1 ZINC000067906323    0.1100
60     H60    -2.2660   -7.8686    2.8425 H        1 ZINC000067906323    0.0800
61     H61    -1.4264   -9.0240    1.7803 H        1 ZINC000067906323    0.0900
62     H62    -0.5821   -7.5651    2.3521 H        1 ZINC000067906323    0.0700
63     H63    -0.9475   -8.3805   -0.6239 H        1 ZINC000067906323    0.1200
64     H64    -1.3546   -6.7428   -1.1798 H        1 ZINC000067906323    0.1000
65     H65     1.0524   -6.5004   -1.8901 H        1 ZINC000067906323    0.0700
66     H66     2.3485   -6.7036   -0.6871 H        1 ZINC000067906323    0.0700
67     H67     1.4239   -8.1179   -1.2467 H        1 ZINC000067906323    0.0800
68     H68    -1.1054   -3.6120    4.2513 H        1 ZINC000067906323    0.1500
69     H69     0.4870   -4.2571    6.0120 H        1 ZINC000067906323    0.1500
70     H70     2.8531   -3.6077    5.8347 H        1 ZINC000067906323    0.1500
71     H71     2.0648   -1.6636    2.1232 H        1 ZINC000067906323    0.1500
72     H72     0.8265    1.3574    4.7328 H        1 ZINC000067906323    0.0700
73     H73    -0.0599    2.5857    3.7980 H        1 ZINC000067906323    0.0900
74     H74    -0.4918    2.8792    6.2065 H        1 ZINC000067906323    0.0800
75     H75    -1.9806    2.3682    5.3757 H        1 ZINC000067906323    0.1000
76     H76    -1.8216    1.9291    8.2189 H        1 ZINC000067906323    0.0600
77     H77    -3.0560    1.2789    7.1129 H        1 ZINC000067906323    0.1300
78     H78    -2.9489   -0.0336    9.2210 H        1 ZINC000067906323    0.1400
79     H79    -2.4839   -1.0236    7.8168 H        1 ZINC000067906323    0.1400
80     H80    -1.2927   -2.5069    9.2883 H        1 ZINC000067906323    0.1500
81     H81     0.7461    0.1177   10.9527 H        1 ZINC000067906323    0.1100
82     H82     2.9265   -0.3435   11.9996 H        1 ZINC000067906323    0.1300
83     H83     3.7390   -2.6607   12.1824 H        1 ZINC000067906323    0.1400
84     H84     2.3707   -4.5169   11.3191 H        1 ZINC000067906323    0.1400
85     H85     0.1881   -4.0561   10.2764 H        1 ZINC000067906323    0.1300
86     H86    -1.4518    0.5882   11.3369 H        1 ZINC000067906323    0.1100
87     H87    -3.1435    0.9497   13.0892 H        1 ZINC000067906323    0.1300
88     H88    -4.6770   -0.8725   13.7147 H        1 ZINC000067906323    0.1400
89     H89    -4.5193   -3.0560   12.5874 H        1 ZINC000067906323    0.1400
90     H90    -2.8306   -3.4160   10.8319 H        1 ZINC000067906323    0.1300
91     H91     1.0759   -0.8878    8.4907 H        1 ZINC000067906323    0.1400
92     H92    -0.1844   -1.5117    7.3996 H        1 ZINC000067906323    0.1400
93     H93     0.9747    0.4234    6.3815 H        1 ZINC000067906323    0.1200
94     H94     0.5473    1.4263    7.7891 H        1 ZINC000067906323    0.0600
@<TRIPOS>BOND
1     1     2     1
2     1     54    1
3     1     55    1
4     1     56    1
5     2     28    ar
6     2     3     ar
7     3     4     ar
8     4     5     1
9     4     6     ar
10    5     57    1
11    5     58    1
12    5     59    1
13    6     7     1
14    6     18    ar
15    7     17    1
16    7     8     2
17    7     9     1
18    9     10    1
19    10    11    1
20    10    12    1
21    10    13    1
22    12    60    1
23    12    61    1
24    12    62    1
25    13    14    1
26    13    63    1
27    13    64    1
28    14    15    1
29    14    16    1
30    14    17    1
31    16    65    1
32    16    66    1
33    16    67    1
34    18    19    1
35    18    28    ar
36    19    27    ar
37    19    20    ar
38    20    21    ar
39    20    68    1
40    21    22    ar
41    21    69    1
42    22    23    ar
43    22    70    1
44    23    24    1
45    23    27    ar
46    24    25    2
47    24    26    2
48    27    71    1
49    28    29    1
50    29    30    2
51    29    31    1
52    31    32    1
53    32    33    1
54    32    72    1
55    32    73    1
56    33    34    1
57    33    74    1
58    33    75    1
59    34    53    1
60    34    35    1
61    35    36    1
62    35    76    1
63    35    77    1
64    36    37    1
65    36    78    1
66    36    79    1
67    37    38    1
68    37    39    1
69    37    52    1
70    39    40    1
71    39    46    1
72    39    80    1
73    40    45    ar
74    40    41    ar
75    41    42    ar
76    41    81    1
77    42    43    ar
78    42    82    1
79    43    44    ar
80    43    83    1
81    44    45    ar
82    44    84    1
83    45    85    1
84    46    51    ar
85    46    47    ar
86    47    48    ar
87    47    86    1
88    48    49    ar
89    48    87    1
90    49    50    ar
91    49    88    1
92    50    51    ar
93    50    89    1
94    51    90    1
95    52    53    1
96    52    91    1
97    52    92    1
98    53    93    1
99    53    94    1
@<TRIPOS>SUBSTRUCTURE
1   ZINC000067906323 1     RESIDUE    1   A     ZIN   1
