#	Created by:	Discovery Studio
#	Creation time:	2021-03-11T12:14:21Z

@<TRIPOS>MOLECULE
Molecule
   34    37     0 0 0
SMALL
USER_CHARGES


@<TRIPOS>ATOM
      1 O1           24.691111  -20.195791   -0.596869 O.2      1 SUBUNIT    0.0000
      2 C2           24.801211  -21.391108   -0.264003 C.2      1 SUBUNIT    0.0000
      3 N3           26.013126  -21.982288   -0.132571 N.am     1 SUBUNIT    0.0000
      4 C4           27.301370  -21.272688   -0.401751 C.3      1 SUBUNIT    0.0000
      5 C5           27.252094  -19.799207    0.251767 C.3      1 SUBUNIT    0.0000
      6 C6           28.424302  -18.789147   -0.088949 C.3      1 SUBUNIT    0.0000
      7 C7           28.003946  -17.370411    0.350063 C.3      1 SUBUNIT    0.0000
      8 C8           29.082095  -16.345705   -0.082292 C.3      1 SUBUNIT    0.0000
      9 C9           30.430185  -16.686872    0.575365 C.3      1 SUBUNIT    0.0000
     10 C10          30.847143  -18.101635    0.164586 C.3      1 SUBUNIT    0.0000
     11 C11          29.762600  -19.102320    0.613224 C.3      1 SUBUNIT    0.0000
     12 C12          28.506882  -22.076948    0.099562 C.2      1 SUBUNIT    0.0000
     13 N13          29.698320  -21.880152   -0.480527 N.am     1 SUBUNIT    0.0000
     14 C14          30.947254  -22.441731    0.014879 C.3      1 SUBUNIT    0.0000
     15 C15          31.148190  -23.925568   -0.449148 C.3      1 SUBUNIT    0.0000
     16 C16          32.482195  -24.583614    0.120426 C.3      1 SUBUNIT    0.0000
     17 C17          33.866214  -24.071441   -0.345888 C.3      1 SUBUNIT    0.0000
     18 C18          34.784981  -25.205988    0.161971 C.3      1 SUBUNIT    0.0000
     19 N19          33.948194  -26.363041   -0.125857 N.am     1 SUBUNIT    0.0000
     20 C20          32.664523  -26.012564   -0.166280 C.2      1 SUBUNIT    0.0000
     21 O21          31.737596  -26.797738   -0.386171 O.2      1 SUBUNIT    0.0000
     22 C22          32.022923  -21.536278   -0.524245 C.2      1 SUBUNIT    0.0000
     23 H23          32.194901  -21.473979   -1.598787 H        1 SUBUNIT    0.0000
     24 O24          32.710829  -20.863712    0.251770 O.2      1 SUBUNIT    0.0000
     25 O25          28.397451  -22.821477    1.081447 O.2      1 SUBUNIT    0.0000
     26 C26          23.535790  -22.114024   -0.084675 C.2      1 SUBUNIT    0.0000
     27 C27          22.346572  -21.524270   -0.152851 C.2      1 SUBUNIT    0.0000
     28 C28          21.382170  -22.581248    0.006142 C.2      1 SUBUNIT    0.0000
     29 C29          22.010406  -23.726901    0.149343 C.2      1 SUBUNIT    0.0000
     30 N30          23.397671  -23.519460    0.120620 N.pl3    1 SUBUNIT    0.0000
     31 C31          21.289313  -24.976429    0.295236 C.2      1 SUBUNIT    0.0000
     32 C32          19.951519  -24.925179    0.279193 C.2      1 SUBUNIT    0.0000
     33 C33          19.241488  -23.614944    0.124000 C.2      1 SUBUNIT    0.0000
     34 C34          19.938625  -22.482858   -0.007545 C.2      1 SUBUNIT    0.0000
@<TRIPOS>BOND
     1    1    2 2
     2    2    3 1
     3    3    4 1
     4    4    5 1
     5    5    6 1
     6    6    7 1
     7    7    8 1
     8    8    9 1
     9    9   10 1
    10   10   11 1
    11    6   11 1
    12    4   12 1
    13   12   13 1
    14   13   14 1
    15   14   15 1
    16   16   15 1
    17   16   17 1
    18   17   18 1
    19   18   19 1
    20   19   20 1
    21   16   20 1
    22   20   21 2
    23   14   22 1
    24   22   23 1
    25   22   24 2
    26   12   25 2
    27    2   26 1
    28   26   27 2
    29   27   28 1
    30   28   29 2
    31   29   30 1
    32   26   30 1
    33   29   31 1
    34   31   32 2
    35   32   33 1
    36   33   34 2
    37   28   34 1
@<SCITEGIC>MOL_PROPERTY
Clean Energy
SciTegic.value.DoubleValue
78.669762

@<SCITEGIC>ATOM_PROPERTY
Formal Charge
SciTegic.value.StringValue
1 0
2 0
3 0
4 0
5 0
6 0
7 0
8 0
9 0
10 0
11 0
12 0
13 0
14 0
15 0
16 0
17 0
18 0
19 0
20 0
21 0
22 0
23 0
24 0
25 0
26 0
27 0
28 0
29 0
30 0
31 0
32 0
33 0
34 0

@<SCITEGIC>ATOM_PROPERTY
pdb_tempFactor
SciTegic.value.DoubleValue
1 0.00
2 0.00
3 0.00
4 0.00
5 0.00
6 0.00
7 0.00
8 0.00
9 0.00
10 0.00
11 0.00
12 0.00
13 0.00
14 0.00
15 0.00
16 0.00
17 0.00
18 0.00
19 0.00
20 0.00
21 0.00
22 0.00
23 0.00
24 0.00
25 0.00
26 0.00
27 0.00
28 0.00
29 0.00
30 0.00
31 0.00
32 0.00
33 0.00
34 0.00

@<SCITEGIC>ATOM_PROPERTY
pdb_occupancy
SciTegic.value.DoubleValue
1 1.00
2 1.00
3 1.00
4 1.00
5 1.00
6 1.00
7 1.00
8 1.00
9 1.00
10 1.00
11 1.00
12 1.00
13 1.00
14 1.00
15 1.00
16 1.00
17 1.00
18 1.00
19 1.00
20 1.00
21 1.00
22 1.00
23 1.00
24 1.00
25 1.00
26 1.00
27 1.00
28 1.00
29 1.00
30 1.00
31 1.00
32 1.00
33 1.00
34 1.00

