# Name:		CC1=CC=C(C=C1)S(=O)(=O)NC2=NC3=CC=CC=C3N=C2NC4=CC5=NSN=C5C=C4
# Created and modified by SHAFTS on Thu Mar 11 04:21:01 2021

# 

@<TRIPOS>MOLECULE
CC1=CC=C(C=C1)S(=O)(=O)NC2=NC3=CC=CC=C3N=C2NC4=CC5=NSN=C5C=C4
   46    50     0
SMALL
USER_CHARGE


@<TRIPOS>ATOM
      1 C1         20.3977  -25.0399    0.0560 C.3       1 <1>        -0.0414
      2 C2         21.4595  -23.9722    0.1151 C.ar      1 <1>        -0.1169
      3 C3         22.0061  -23.6076    1.3313 C.ar      1 <1>        -0.0962
      4 C4         22.9802  -22.6282    1.3855 C.ar      1 <1>        -0.0063
      5 C5         23.4079  -22.0138    0.2234 C.ar      1 <1>         0.2893
      6 S6         24.6490  -20.7649    0.2925 S.o2      1 <1>        -0.0437
      7 O7         24.4845  -19.9706   -0.8742 O.2       1 <1>        -0.0870
      8 O8         24.6078  -20.2307    1.6086 O.2       1 <1>        -0.0870
      9 N9         26.1144  -21.5213    0.1405 N.pl3     1 <1>        -0.0762
     10 C10        27.2842  -20.7769    0.1603 C.ar      1 <1>         0.1246
     11 C11        28.5341  -21.4271    0.0242 C.ar      1 <1>         0.0977
     12 N12        28.5812  -22.8052   -0.1286 N.pl3     1 <1>        -0.3036
     13 C13        29.8131  -23.4646   -0.1449 C.ar      1 <1>        -0.0186
     14 C14        30.8318  -22.9924    0.6253 C.ar      1 <1>        -0.0081
     15 C15        32.0857  -23.6518    0.6179 C.ar      1 <1>         0.0104
     16 N16        33.2081  -23.3881    1.2681 N.2       1 <1>        -0.2726
     17 S17        34.2866  -24.4420    0.8864 S.3       1 <1>         0.1821
     18 N18        33.4756  -25.3174   -0.1110 N.2       1 <1>        -0.2748
     19 C19        32.2496  -24.8326   -0.2263 C.ar      1 <1>         0.0031
     20 C20        31.1470  -25.2707   -1.0036 C.ar      1 <1>        -0.0402
     21 C21        29.9719  -24.6010   -0.9491 C.ar      1 <1>        -0.0350
     22 N22        29.6526  -20.7318    0.0414 N.ar      1 <1>        -0.3492
     23 C23        29.6069  -19.3998    0.1887 C.ar      1 <1>        -0.0106
     24 C24        30.7854  -18.6365    0.2095 C.ar      1 <1>        -0.0672
     25 C25        30.7127  -17.2846    0.3599 C.ar      1 <1>        -0.1012
     26 C26        29.4832  -16.6452    0.4944 C.ar      1 <1>        -0.1004
     27 C27        28.3203  -17.3543    0.4786 C.ar      1 <1>        -0.0639
     28 C28        28.3569  -18.7495    0.3249 C.ar      1 <1>        -0.0193
     29 N29        27.2252  -19.4687    0.3003 N.ar      1 <1>        -0.3693
     30 C30        22.8623  -22.3793   -0.9930 C.ar      1 <1>        -0.0063
     31 C31        21.8910  -23.3614   -1.0476 C.ar      1 <1>        -0.0962
     32 H32        20.8693  -26.0151   -0.0652 H         1 <1>         0.0560
     33 H33        19.8191  -25.0285    0.9797 H         1 <1>         0.0560
     34 H34        19.7365  -24.8485   -0.7892 H         1 <1>         0.0560
     35 H35        21.6719  -24.0876    2.2392 H         1 <1>         0.1174
     36 H36        23.4067  -22.3428    2.3358 H         1 <1>         0.1466
     37 H37        27.7590  -23.3110   -0.2242 H         1 <1>         0.3438
     38 H38        30.6844  -22.1169    1.2402 H         1 <1>         0.1645
     39 H39        31.2437  -26.1412   -1.6355 H         1 <1>         0.1528
     40 H40        29.1403  -24.9452   -1.5462 H         1 <1>         0.1494
     41 H41        31.7459  -19.1195    0.1070 H         1 <1>         0.1310
     42 H42        31.6212  -16.7008    0.3755 H         1 <1>         0.1070
     43 H43        29.4511  -15.5722    0.6133 H         1 <1>         0.1142
     44 H44        27.3736  -16.8454    0.5840 H         1 <1>         0.1256
     45 H45        23.1968  -21.8995   -1.9009 H         1 <1>         0.1466
     46 H46        21.4647  -23.6471   -1.9979 H         1 <1>         0.1174
@<TRIPOS>BOND
     1    1    2 1
     2    1   32 1
     3    1   33 1
     4    1   34 1
     5    2   31 ar
     6    2    3 ar
     7    3    4 ar
     8    3   35 1
     9    4    5 ar
    10    4   36 1
    11    5    6 1
    12    5   30 ar
    13    6    7 2
    14    6    8 2
    15    6    9 1
    16    9   10 1
    17   10   29 ar
    18   10   11 ar
    19   11   12 1
    20   11   22 ar
    21   12   13 1
    22   12   37 1
    23   13   21 ar
    24   13   14 ar
    25   14   15 ar
    26   14   38 1
    27   15   19 ar
    28   15   16 2
    29   16   17 1
    30   17   18 1
    31   18   19 2
    32   19   20 ar
    33   20   21 ar
    34   20   39 1
    35   21   40 1
    36   22   23 ar
    37   23   28 ar
    38   23   24 ar
    39   24   25 ar
    40   24   41 1
    41   25   26 ar
    42   25   42 1
    43   26   27 ar
    44   26   43 1
    45   27   28 ar
    46   27   44 1
    47   28   29 ar
    48   30   31 ar
    49   30   45 1
    50   31   46 1
@<TRIPOS>Similarity
1.0452
@<TRIPOS>ShapeSim
0.7931
@<TRIPOS>PharmSim
0.2521
# END
# Name:		O=C(CSC1=NC(COC)=CC(O)=N1)C2=CC3=CC=CC=C3O2
# Created and modified by SHAFTS on Thu Mar 11 04:21:01 2021

# 

@<TRIPOS>MOLECULE
O=C(CSC1=NC(COC)=CC(O)=N1)C2=CC3=CC=CC=C3O2
   37    39     0
SMALL
USER_CHARGE


@<TRIPOS>ATOM
      1 C1         28.0091  -26.6096    3.3751 C.3       1 <1>         0.0039
      2 O2         28.3614  -25.3211    2.8674 O.3       1 <1>        -0.4483
      3 C3         29.1501  -25.3614    1.6765 C.3       1 <1>         0.0575
      4 C4         29.4616  -23.9554    1.2324 C.2       1 <1>         0.0012
      5 C5         30.7528  -23.5124    1.2286 C.2       1 <1>         0.0370
      6 C6         31.0191  -22.1971    0.8098 C.2       1 <1>         0.1096
      7 O7         32.1616  -21.7690    0.7939 O.2       1 <1>        -0.4849
      8 N8         29.9867  -21.4166    0.4254 N.am      1 <1>        -0.2498
      9 C9         28.7186  -21.9128    0.4498 C.2       1 <1>         0.0886
     10 S10        27.3773  -20.8872   -0.0537 S.3       1 <1>        -0.0238
     11 C11        25.9982  -22.0357    0.1808 C.3       1 <1>         0.1384
     12 C12        24.7080  -21.3555   -0.1989 C.2       1 <1>         0.1445
     13 O13        24.7199  -20.2065   -0.5900 O.2       1 <1>        -0.4291
     14 C14        23.4806  -22.0578   -0.0994 C.2       1 <1>         0.1045
     15 C15        22.2571  -21.5524   -0.4176 C.2       1 <1>        -0.0367
     16 C16        21.3116  -22.5799   -0.1734 C.ar      1 <1>        -0.0489
     17 C17        19.9216  -22.6677   -0.3061 C.ar      1 <1>        -0.0884
     18 C18        19.2812  -23.8291    0.0203 C.ar      1 <1>        -0.0922
     19 C19        19.9992  -24.9235    0.4828 C.ar      1 <1>        -0.0864
     20 C20        21.3691  -24.8588    0.6212 C.ar      1 <1>        -0.0502
     21 C21        22.0428  -23.6880    0.2955 C.ar      1 <1>         0.0222
     22 O22        23.3436  -23.3350    0.3207 O.3       1 <1>        -0.3518
     23 N23        28.4781  -23.1500    0.8394 N.2       1 <1>        -0.3539
     24 H24        28.9155  -27.1684    3.6084 H         1 <1>         0.0801
     25 H25        27.4114  -26.4930    4.2792 H         1 <1>         0.1090
     26 H26        27.4318  -27.1503    2.6251 H         1 <1>         0.0801
     27 H27        30.0801  -25.8943    1.8745 H         1 <1>         0.1339
     28 H28        28.5964  -25.8762    0.8913 H         1 <1>         0.1339
     29 H29        31.5567  -24.1617    1.5427 H         1 <1>         0.1504
     30 H30        30.1474  -20.5058    0.1330 H         1 <1>         0.3546
     31 H31        26.1451  -22.9133   -0.4486 H         1 <1>         0.1455
     32 H32        25.9537  -22.3414    1.2261 H         1 <1>         0.1527
     33 H33        22.0470  -20.5588   -0.7853 H         1 <1>         0.1653
     34 H34        19.3568  -21.8199   -0.6651 H         1 <1>         0.1358
     35 H35        18.2082  -23.8965   -0.0819 H         1 <1>         0.1268
     36 H36        19.4789  -25.8351    0.7374 H         1 <1>         0.1397
     37 H37        21.9178  -25.7160    0.9824 H         1 <1>         0.1392
@<TRIPOS>BOND
     1    1    2 1
     2    1   24 1
     3    1   25 1
     4    1   26 1
     5    2    3 1
     6    3    4 1
     7    3   27 1
     8    3   28 1
     9    4   23 1
    10    4    5 2
    11    5    6 1
    12    5   29 1
    13    6    7 2
    14    6    8 am
    15    8    9 1
    16    8   30 1
    17    9   10 1
    18    9   23 2
    19   10   11 1
    20   11   12 1
    21   11   31 1
    22   11   32 1
    23   12   13 2
    24   12   14 1
    25   14   22 1
    26   14   15 2
    27   15   16 1
    28   15   33 1
    29   16   21 ar
    30   16   17 ar
    31   17   18 ar
    32   17   34 1
    33   18   19 ar
    34   18   35 1
    35   19   20 ar
    36   19   36 1
    37   20   21 ar
    38   20   37 1
    39   21   22 1
@<TRIPOS>Similarity
1.0120
@<TRIPOS>ShapeSim
0.6547
@<TRIPOS>PharmSim
0.3574
# END
