@<TRIPOS>MOLECULE
ZINC000013465217
37    39    1     0     0
SMALL
USER_CHARGES
@<TRIPOS>ATOM
1      C1     -0.0173    1.4248    0.0099 C.3      1 ZINC000013465217    0.0300
2      O2      0.0021   -0.0041    0.0020 O.3      1 ZINC000013465217   -0.3800
3      C3      0.6734   -0.5824    1.1231 C.3      1 ZINC000013465217    0.1100
4      C4      0.6333   -2.0848    1.0124 C.2      1 ZINC000013465217    0.1900
5      C5      1.7928   -2.7873    0.8522 C.2      1 ZINC000013465217   -0.2700
6      C6      1.7306   -4.1882    0.7517 C.2      1 ZINC000013465217    0.5300
7      O7      2.7476   -4.8469    0.6083 O.2      1 ZINC000013465217   -0.5300
8      N8      0.5242   -4.7908    0.8172 N.am     1 ZINC000013465217   -0.6100
9      C9     -0.5994   -4.0382    0.9780 C.2      1 ZINC000013465217    0.3600
10     S10    -2.1696   -4.8332    1.0625 S.3      1 ZINC000013465217    0.0700
11     C11    -3.2418   -3.3899    1.2709 C.3      1 ZINC000013465217   -0.1600
12     C12    -4.6767   -3.8401    1.3691 C.2      1 ZINC000013465217    0.4500
13     O13    -4.9479   -5.0215    1.3045 O.2      1 ZINC000013465217   -0.4200
14     C14    -5.7096   -2.8838    1.5369 C.2      1 ZINC000013465217   -0.0700
15     C15    -7.0366   -3.1697    1.6431 C.2      1 ZINC000013465217   -0.0800
16     C16    -7.7124   -1.9333    1.7979 C.ar     1 ZINC000013465217   -0.1500
17     C17    -9.0567   -1.5777    1.9525 C.ar     1 ZINC000013465217   -0.0500
18     C18    -9.3996   -0.2619    2.0811 C.ar     1 ZINC000013465217   -0.1400
19     C19    -8.4243    0.7257    2.0597 C.ar     1 ZINC000013465217   -0.0700
20     C20    -7.0940    0.3977    1.9084 C.ar     1 ZINC000013465217   -0.1200
21     C21    -6.7207   -0.9341    1.7757 C.ar     1 ZINC000013465217    0.0800
22     O22    -5.5299   -1.5471    1.6221 O.3      1 ZINC000013465217   -0.1700
23     N23    -0.5316   -2.7245    1.0765 N.2      1 ZINC000013465217   -0.5300
24     H24     1.0053    1.8021    0.0021 H        1 ZINC000013465217    0.0500
25     H25    -0.5445    1.7859   -0.8732 H        1 ZINC000013465217    0.0900
26     H26    -0.5275    1.7763    0.9067 H        1 ZINC000013465217    0.0500
27     H27     1.7103   -0.2468    1.1385 H        1 ZINC000013465217    0.0800
28     H28     0.1775   -0.2725    2.0430 H        1 ZINC000013465217    0.0800
29     H29     2.7424   -2.2752    0.8030 H        1 ZINC000013465217    0.1600
30     H30     0.4579   -5.7562    0.7498 H        1 ZINC000013465217    0.4200
31     H31    -2.9643   -2.8596    2.1818 H        1 ZINC000013465217    0.1400
32     H32    -3.1273   -2.7255    0.4144 H        1 ZINC000013465217    0.1500
33     H33    -7.4879   -4.1505    1.6145 H        1 ZINC000013465217    0.1700
34     H34    -9.8206   -2.3410    1.9697 H        1 ZINC000013465217    0.1300
35     H35   -10.4374    0.0123    2.2001 H        1 ZINC000013465217    0.1400
36     H36    -8.7108    1.7620    2.1622 H        1 ZINC000013465217    0.1400
37     H37    -6.3435    1.1741    1.8927 H        1 ZINC000013465217    0.1400
@<TRIPOS>BOND
1     1     2     1
2     1     24    1
3     1     25    1
4     1     26    1
5     2     3     1
6     3     4     1
7     3     27    1
8     3     28    1
9     4     23    1
10    4     5     2
11    5     6     1
12    5     29    1
13    6     7     2
14    6     8     am
15    8     9     1
16    8     30    1
17    9     10    1
18    9     23    2
19    10    11    1
20    11    12    1
21    11    31    1
22    11    32    1
23    12    13    2
24    12    14    1
25    14    22    1
26    14    15    2
27    15    16    1
28    15    33    1
29    16    21    ar
30    16    17    ar
31    17    18    ar
32    17    34    1
33    18    19    ar
34    18    35    1
35    19    20    ar
36    19    36    1
37    20    21    ar
38    20    37    1
39    21    22    1
@<TRIPOS>SUBSTRUCTURE
1   ZINC000013465217 1     RESIDUE    1   A     ZIN   1
