# Name:		O=C(CSC1=NC(COC)=CC(O)=N1)C2=CC3=CC=CC=C3O2
# Created and modified by SHAFTS on Sun Mar 21 16:57:45 2021

# 

@<TRIPOS>MOLECULE
O=C(CSC1=NC(COC)=CC(O)=N1)C2=CC3=CC=CC=C3O2
   37    39     0
SMALL
USER_CHARGE


@<TRIPOS>ATOM
      1 C1         -0.0173    1.4248    0.0099 C.3       1 <1>         0.0039
      2 O2          0.0021   -0.0041    0.0020 O.3       1 <1>        -0.4483
      3 C3          0.6734   -0.5824    1.1231 C.3       1 <1>         0.0575
      4 C4          0.6333   -2.0848    1.0124 C.2       1 <1>         0.0012
      5 C5          1.7928   -2.7873    0.8522 C.2       1 <1>         0.0370
      6 C6          1.7306   -4.1882    0.7517 C.2       1 <1>         0.1096
      7 O7          2.7476   -4.8469    0.6083 O.2       1 <1>        -0.4849
      8 N8          0.5242   -4.7908    0.8172 N.am      1 <1>        -0.2498
      9 C9         -0.5994   -4.0382    0.9780 C.2       1 <1>         0.0886
     10 S10        -2.1696   -4.8332    1.0625 S.3       1 <1>        -0.0238
     11 C11        -3.2418   -3.3899    1.2709 C.3       1 <1>         0.1384
     12 C12        -4.6767   -3.8401    1.3691 C.2       1 <1>         0.1445
     13 O13        -4.9479   -5.0215    1.3045 O.2       1 <1>        -0.4291
     14 C14        -5.7096   -2.8838    1.5369 C.2       1 <1>         0.1045
     15 C15        -7.0366   -3.1697    1.6431 C.2       1 <1>        -0.0367
     16 C16        -7.7124   -1.9333    1.7979 C.ar      1 <1>        -0.0489
     17 C17        -9.0567   -1.5777    1.9525 C.ar      1 <1>        -0.0884
     18 C18        -9.3996   -0.2619    2.0811 C.ar      1 <1>        -0.0922
     19 C19        -8.4243    0.7257    2.0597 C.ar      1 <1>        -0.0864
     20 C20        -7.0940    0.3977    1.9084 C.ar      1 <1>        -0.0502
     21 C21        -6.7207   -0.9341    1.7757 C.ar      1 <1>         0.0222
     22 O22        -5.5299   -1.5471    1.6221 O.3       1 <1>        -0.3518
     23 N23        -0.5316   -2.7245    1.0765 N.2       1 <1>        -0.3539
     24 H24         1.0053    1.8021    0.0021 H         1 <1>         0.0801
     25 H25        -0.5445    1.7859   -0.8732 H         1 <1>         0.1090
     26 H26        -0.5275    1.7763    0.9067 H         1 <1>         0.0801
     27 H27         1.7103   -0.2468    1.1385 H         1 <1>         0.1339
     28 H28         0.1775   -0.2725    2.0430 H         1 <1>         0.1339
     29 H29         2.7424   -2.2752    0.8030 H         1 <1>         0.1504
     30 H30         0.4579   -5.7562    0.7498 H         1 <1>         0.3546
     31 H31        -2.9643   -2.8596    2.1818 H         1 <1>         0.1455
     32 H32        -3.1273   -2.7255    0.4144 H         1 <1>         0.1527
     33 H33        -7.4879   -4.1505    1.6145 H         1 <1>         0.1653
     34 H34        -9.8206   -2.3410    1.9697 H         1 <1>         0.1358
     35 H35       -10.4374    0.0123    2.2001 H         1 <1>         0.1268
     36 H36        -8.7108    1.7620    2.1622 H         1 <1>         0.1397
     37 H37        -6.3435    1.1741    1.8927 H         1 <1>         0.1392
@<TRIPOS>BOND
     1    1    2 1
     2    1   24 1
     3    1   25 1
     4    1   26 1
     5    2    3 1
     6    3    4 1
     7    3   27 1
     8    3   28 1
     9    4   23 1
    10    4    5 2
    11    5    6 1
    12    5   29 1
    13    6    7 2
    14    6    8 am
    15    8    9 1
    16    8   30 1
    17    9   10 1
    18    9   23 2
    19   10   11 1
    20   11   12 1
    21   11   31 1
    22   11   32 1
    23   12   13 2
    24   12   14 1
    25   14   22 1
    26   14   15 2
    27   15   16 1
    28   15   33 1
    29   16   21 ar
    30   16   17 ar
    31   17   18 ar
    32   17   34 1
    33   18   19 ar
    34   18   35 1
    35   19   20 ar
    36   19   36 1
    37   20   21 ar
    38   20   37 1
    39   21   22 1
@<TRIPOS>Similarity
2.0000
@<TRIPOS>ShapeSim
1.0000
@<TRIPOS>PharmSim
1.0000
# END
# Name:		O=S(C1=CC(C2=NC3=CC=CC=C3S2)=CS1)(N)=O
# Created and modified by SHAFTS on Sun Mar 21 16:57:45 2021

# 

@<TRIPOS>MOLECULE
O=S(C1=CC(C2=NC3=CC=CC=C3S2)=CS1)(N)=O
   26    28     0
SMALL
USER_CHARGE


@<TRIPOS>ATOM
      1 N1          0.3720   -3.3901    2.5376 N.am      1 <1>        -0.1565
      2 S2         -0.2472   -3.3834    1.0017 S.o2      1 <1>        -0.0631
      3 O3         -0.2131   -2.0328    0.5612 O.2       1 <1>        -0.0794
      4 O4          0.3934   -4.4441    0.3062 O.2       1 <1>        -0.0794
      5 C5         -1.9489   -3.8242    1.1234 C.2       1 <1>         0.3636
      6 C6         -2.9522   -2.9647    1.2819 C.2       1 <1>         0.0369
      7 C7         -4.2089   -3.5728    1.3491 C.2       1 <1>        -0.0032
      8 C8         -5.4608   -2.8098    1.5228 C.2       1 <1>         0.0513
      9 N9         -5.5331   -1.5242    1.6241 N.2       1 <1>        -0.3705
     10 C10        -6.7503   -0.9726    1.7783 C.ar      1 <1>        -0.0269
     11 C11        -7.0918    0.3909    1.9110 C.ar      1 <1>        -0.0558
     12 C12        -8.4022    0.7673    2.0614 C.ar      1 <1>        -0.0820
     13 C13        -9.4122   -0.1834    2.0862 C.ar      1 <1>        -0.0897
     14 C14        -9.1037   -1.5195    1.9591 C.ar      1 <1>        -0.0796
     15 C15        -7.7789   -1.9210    1.8046 C.ar      1 <1>        -0.0039
     16 S16        -7.0661   -3.5209    1.6136 S.3       1 <1>        -0.0638
     17 C17        -4.1794   -4.9156    1.2415 C.2       1 <1>         0.0163
     18 S18        -2.5755   -5.4641    1.0458 S.3       1 <1>         0.0188
     19 H19        -0.1987   -3.6131    3.2895 H         1 <1>         0.3223
     20 H20         1.3062   -3.1748    2.6848 H         1 <1>         0.3223
     21 H21        -2.8088   -1.8966    1.3529 H         1 <1>         0.1894
     22 H22        -6.3163    1.1424    1.8941 H         1 <1>         0.1516
     23 H23        -8.6500    1.8137    2.1618 H         1 <1>         0.1337
     24 H24       -10.4406    0.1242    2.2055 H         1 <1>         0.1346
     25 H25        -9.8912   -2.2582    1.9790 H         1 <1>         0.1325
     26 H26        -5.0493   -5.5549    1.2710 H         1 <1>         0.1704
@<TRIPOS>BOND
     1    1    2 am
     2    1   19 1
     3    1   20 1
     4    2    3 2
     5    2    4 2
     6    2    5 1
     7    5   18 1
     8    5    6 2
     9    6    7 1
    10    6   21 1
    11    7    8 1
    12    7   17 2
    13    8   16 1
    14    8    9 2
    15    9   10 1
    16   10   15 ar
    17   10   11 ar
    18   11   12 ar
    19   11   22 1
    20   12   13 ar
    21   12   23 1
    22   13   14 ar
    23   13   24 1
    24   14   15 ar
    25   14   25 1
    26   15   16 1
    27   17   18 1
    28   17   26 1
@<TRIPOS>Similarity
1.3468
@<TRIPOS>ShapeSim
0.8451
@<TRIPOS>PharmSim
0.5017
# END
# Name:		NS(C1=CC(C2=NC3=CC=CC=C3S2)=CS1)(=O)=O
# Created and modified by SHAFTS on Sun Mar 21 16:57:45 2021

# 

@<TRIPOS>MOLECULE
NS(C1=CC(C2=NC3=CC=CC=C3S2)=CS1)(=O)=O
   26    28     0
SMALL
USER_CHARGE


@<TRIPOS>ATOM
      1 N1          0.3720   -3.3901    2.5376 N.am      1 <1>        -0.1565
      2 S2         -0.2472   -3.3834    1.0017 S.o2      1 <1>        -0.0631
      3 O3         -0.2131   -2.0328    0.5612 O.2       1 <1>        -0.0794
      4 O4          0.3934   -4.4441    0.3062 O.2       1 <1>        -0.0794
      5 C5         -1.9489   -3.8242    1.1234 C.2       1 <1>         0.3636
      6 C6         -2.9522   -2.9647    1.2819 C.2       1 <1>         0.0369
      7 C7         -4.2089   -3.5728    1.3491 C.2       1 <1>        -0.0032
      8 C8         -5.4608   -2.8098    1.5228 C.2       1 <1>         0.0513
      9 N9         -5.5331   -1.5242    1.6241 N.2       1 <1>        -0.3705
     10 C10        -6.7503   -0.9726    1.7783 C.ar      1 <1>        -0.0269
     11 C11        -7.0918    0.3909    1.9110 C.ar      1 <1>        -0.0558
     12 C12        -8.4022    0.7673    2.0614 C.ar      1 <1>        -0.0820
     13 C13        -9.4122   -0.1834    2.0862 C.ar      1 <1>        -0.0897
     14 C14        -9.1037   -1.5195    1.9591 C.ar      1 <1>        -0.0796
     15 C15        -7.7789   -1.9210    1.8046 C.ar      1 <1>        -0.0039
     16 S16        -7.0661   -3.5209    1.6136 S.3       1 <1>        -0.0638
     17 C17        -4.1794   -4.9156    1.2415 C.2       1 <1>         0.0163
     18 S18        -2.5755   -5.4641    1.0458 S.3       1 <1>         0.0188
     19 H19        -0.1987   -3.6131    3.2895 H         1 <1>         0.3223
     20 H20         1.3062   -3.1748    2.6848 H         1 <1>         0.3223
     21 H21        -2.8088   -1.8966    1.3529 H         1 <1>         0.1894
     22 H22        -6.3163    1.1424    1.8941 H         1 <1>         0.1516
     23 H23        -8.6500    1.8137    2.1618 H         1 <1>         0.1337
     24 H24       -10.4406    0.1242    2.2055 H         1 <1>         0.1346
     25 H25        -9.8912   -2.2582    1.9790 H         1 <1>         0.1325
     26 H26        -5.0493   -5.5549    1.2710 H         1 <1>         0.1704
@<TRIPOS>BOND
     1    1    2 am
     2    1   19 1
     3    1   20 1
     4    2    3 2
     5    2    4 2
     6    2    5 1
     7    5   18 1
     8    5    6 2
     9    6    7 1
    10    6   21 1
    11    7    8 1
    12    7   17 2
    13    8   16 1
    14    8    9 2
    15    9   10 1
    16   10   15 ar
    17   10   11 ar
    18   11   12 ar
    19   11   22 1
    20   12   13 ar
    21   12   23 1
    22   13   14 ar
    23   13   24 1
    24   14   15 ar
    25   14   25 1
    26   15   16 1
    27   17   18 1
    28   17   26 1
@<TRIPOS>Similarity
1.3468
@<TRIPOS>ShapeSim
0.8451
@<TRIPOS>PharmSim
0.5017
# END
# Name:		O=C(CSC1=NN=CN1)C2=CC=CC=C2
# Created and modified by SHAFTS on Sun Mar 21 16:57:45 2021

# 

@<TRIPOS>MOLECULE
O=C(CSC1=NN=CN1)C2=CC=CC=C2
   24    25     0
SMALL
USER_CHARGE


@<TRIPOS>ATOM
      1 O1         -4.9052   -5.0691    1.2969 O.2       1 <1>        -0.4472
      2 C2         -4.6686   -3.8820    1.3690 C.2       1 <1>         0.0982
      3 C3         -3.2474   -3.3899    1.2743 C.3       1 <1>         0.1196
      4 S4         -2.1313   -4.8032    1.0569 S.3       1 <1>        -0.0450
      5 C5         -0.5436   -4.0443    0.9677 C.2       1 <1>         0.0866
      6 N6         -0.3061   -2.7564    1.0534 N.2       1 <1>        -0.3287
      7 N7          1.0835   -2.5921    0.9340 N.pl3     1 <1>        -0.2903
      8 C8          1.6011   -3.8225    0.7808 C.2       1 <1>         0.0315
      9 N9          0.6182   -4.6861    0.8072 N.2       1 <1>        -0.3482
     10 C10        -5.7699   -2.9214    1.5429 C.ar      1 <1>        -0.0079
     11 C11        -5.5016   -1.5511    1.6205 C.ar      1 <1>        -0.0820
     12 C12        -6.5390   -0.6574    1.7829 C.ar      1 <1>        -0.0970
     13 C13        -7.8429   -1.1133    1.8696 C.ar      1 <1>        -0.0986
     14 C14        -8.1165   -2.4679    1.7935 C.ar      1 <1>        -0.0952
     15 C15        -7.0907   -3.3738    1.6254 C.ar      1 <1>        -0.0783
     16 H16        -3.1519   -2.7170    0.4220 H         1 <1>         0.1313
     17 H17        -2.9855   -2.8574    2.1886 H         1 <1>         0.1313
     18 H18         1.5733   -1.7552    0.9573 H         1 <1>         0.3811
     19 H19         2.6481   -4.0584    0.6605 H         1 <1>         0.3057
     20 H20        -4.4846   -1.1938    1.5539 H         1 <1>         0.1315
     21 H21        -6.3335    0.4013    1.8432 H         1 <1>         0.1204
     22 H22        -8.6511   -0.4084    1.9975 H         1 <1>         0.1289
     23 H23        -9.1366   -2.8160    1.8623 H         1 <1>         0.1208
     24 H24        -7.3058   -4.4304    1.5659 H         1 <1>         0.1417
@<TRIPOS>BOND
     1    1    2 2
     2    2    3 1
     3    2   10 1
     4    3    4 1
     5    3   16 1
     6    3   17 1
     7    4    5 1
     8    5    9 1
     9    5    6 2
    10    6    7 1
    11    7    8 1
    12    7   18 1
    13    8    9 2
    14    8   19 1
    15   10   15 ar
    16   10   11 ar
    17   11   12 ar
    18   11   20 1
    19   12   13 ar
    20   12   21 1
    21   13   14 ar
    22   13   22 1
    23   14   15 ar
    24   14   23 1
    25   15   24 1
@<TRIPOS>Similarity
1.3451
@<TRIPOS>ShapeSim
0.8424
@<TRIPOS>PharmSim
0.5027
# END
# Name:		O=C1NC(CCC(NCC2=CC=CC=C2)=O)=NC3=CC=CC=C31
# Created and modified by SHAFTS on Sun Mar 21 16:57:45 2021

# 

@<TRIPOS>MOLECULE
O=C1NC(CCC(NCC2=CC=CC=C2)=O)=NC3=CC=CC=C31
   40    42     0
SMALL
USER_CHARGE


@<TRIPOS>ATOM
      1 O1         -4.7163   -5.0224    1.2830 O.2       1 <1>        -0.4995
      2 C2         -4.5072   -3.8299    1.3543 C.2       1 <1>         0.0684
      3 C3         -3.0973   -3.3054    1.2640 C.3       1 <1>         0.0739
      4 C4         -2.1282   -4.4759    1.0857 C.3       1 <1>         0.0581
      5 C5         -0.7183   -3.9515    0.9954 C.2       1 <1>         0.0194
      6 N6         -0.5315   -2.6695    1.0808 N.2       1 <1>        -0.3670
      7 C7          0.7091   -2.1252    1.0085 C.ar      1 <1>        -0.0128
      8 C8          0.9108   -0.7469    1.1006 C.ar      1 <1>        -0.0526
      9 C9          2.1880   -0.2380    1.0224 C.ar      1 <1>        -0.0835
     10 C10         3.2797   -1.0788    0.8528 C.ar      1 <1>        -0.0908
     11 C11         3.1060   -2.4426    0.7587 C.ar      1 <1>        -0.0649
     12 C12         1.8222   -2.9779    0.8359 C.ar      1 <1>         0.0476
     13 C13         1.5756   -4.4245    0.7414 C.2       1 <1>         0.1251
     14 O14         2.4903   -5.2135    0.5917 O.2       1 <1>        -0.4676
     15 N15         0.2925   -4.8449    0.8344 N.am      1 <1>        -0.2641
     16 N16        -5.5362   -2.9732    1.5085 N.am      1 <1>        -0.3526
     17 C17        -6.9073   -3.4826    1.5902 C.3       1 <1>        -0.0120
     18 C18        -7.8624   -2.3293    1.7604 C.ar      1 <1>        -0.0893
     19 C19        -8.1919   -1.8860    3.0275 C.ar      1 <1>        -0.0989
     20 C20        -9.0679   -0.8280    3.1836 C.ar      1 <1>        -0.1056
     21 C21        -9.6140   -0.2132    2.0724 C.ar      1 <1>        -0.1075
     22 C22        -9.2838   -0.6559    0.8051 C.ar      1 <1>        -0.1056
     23 C23        -8.4044   -1.7111    0.6491 C.ar      1 <1>        -0.0989
     24 H24        -3.0141   -2.6318    0.4110 H         1 <1>         0.1154
     25 H25        -2.8510   -2.7659    2.1784 H         1 <1>         0.1154
     26 H26        -2.2114   -5.1496    1.9386 H         1 <1>         0.1205
     27 H27        -2.3745   -5.0155    0.1712 H         1 <1>         0.1205
     28 H28         0.0694   -0.0830    1.2323 H         1 <1>         0.1434
     29 H29         2.3423    0.8285    1.0935 H         1 <1>         0.1403
     30 H30         4.2737   -0.6604    0.7937 H         1 <1>         0.1196
     31 H31         3.9589   -3.0918    0.6264 H         1 <1>         0.1464
     32 H32         0.0918   -5.7923    0.7767 H         1 <1>         0.3459
     33 H33        -5.3689   -2.0194    1.5655 H         1 <1>         0.2948
     34 H34        -7.1494   -4.0228    0.6750 H         1 <1>         0.1166
     35 H35        -6.9948   -4.1555    2.4433 H         1 <1>         0.1166
     36 H36        -7.7653   -2.3663    3.8956 H         1 <1>         0.1177
     37 H37        -9.3260   -0.4821    4.1735 H         1 <1>         0.1128
     38 H38       -10.2990    0.6129    2.1943 H         1 <1>         0.1142
     39 H39        -9.7106   -0.1759   -0.0629 H         1 <1>         0.1128
     40 H40        -8.1464   -2.0570   -0.3410 H         1 <1>         0.1177
@<TRIPOS>BOND
     1    1    2 2
     2    2    3 1
     3    2   16 am
     4    3    4 1
     5    3   24 1
     6    3   25 1
     7    4    5 1
     8    4   26 1
     9    4   27 1
    10    5   15 1
    11    5    6 2
    12    6    7 1
    13    7   12 ar
    14    7    8 ar
    15    8    9 ar
    16    8   28 1
    17    9   10 ar
    18    9   29 1
    19   10   11 ar
    20   10   30 1
    21   11   12 ar
    22   11   31 1
    23   12   13 1
    24   13   14 2
    25   13   15 am
    26   15   32 1
    27   16   17 1
    28   16   33 1
    29   17   18 1
    30   17   34 1
    31   17   35 1
    32   18   23 ar
    33   18   19 ar
    34   19   20 ar
    35   19   36 1
    36   20   21 ar
    37   20   37 1
    38   21   22 ar
    39   21   38 1
    40   22   23 ar
    41   22   39 1
    42   23   40 1
@<TRIPOS>Similarity
1.2638
@<TRIPOS>ShapeSim
0.8124
@<TRIPOS>PharmSim
0.4514
# END
# Name:		O=C(CSC1=NC(CCC)=CC(O)=N1)N(CC2)CCN2C3=CC=CC=C3
# Created and modified by SHAFTS on Sun Mar 21 16:57:45 2021

# 

@<TRIPOS>MOLECULE
O=C(CSC1=NC(CCC)=CC(O)=N1)N(CC2)CCN2C3=CC=CC=C3
   50    52     0
SMALL
USER_CHARGE


@<TRIPOS>ATOM
      1 C1          0.4631    1.5628   -0.1404 C.3       1 <1>        -0.0678
      2 C2          0.4227    0.0374   -0.2530 C.3       1 <1>        -0.0557
      3 C3          0.6725   -0.5822    1.1234 C.3       1 <1>        -0.0079
      4 C4          0.6327   -2.0847    1.0126 C.2       1 <1>        -0.0362
      5 C5          1.7923   -2.7869    0.8523 C.2       1 <1>         0.0255
      6 C6          1.7304   -4.1878    0.7517 C.2       1 <1>         0.1042
      7 O7          2.7476   -4.8463    0.6083 O.2       1 <1>        -0.4862
      8 N8          0.5241   -4.7906    0.8172 N.am      1 <1>        -0.2541
      9 C9         -0.5997   -4.0383    0.9779 C.2       1 <1>         0.0870
     10 S10        -2.1697   -4.8336    1.0625 S.3       1 <1>        -0.0132
     11 C11        -3.2422   -3.3904    1.2709 C.3       1 <1>         0.1425
     12 C12        -4.6770   -3.8409    1.3691 C.2       1 <1>         0.1076
     13 O13        -4.9477   -5.0213    1.3045 O.2       1 <1>        -0.4786
     14 N14        -5.6592   -2.9320    1.5287 N.am      1 <1>        -0.3541
     15 C15        -5.3534   -1.4952    1.6033 C.3       1 <1>        -0.0297
     16 C16        -6.2462   -0.7549    0.6019 C.3       1 <1>        -0.1452
     17 N17        -7.6510   -1.1046    0.8514 N.3       1 <1>         0.3633
     18 C18        -8.5071   -0.3271    0.0684 C.ar      1 <1>        -0.2390
     19 C19        -7.9852    0.6201   -0.8036 C.ar      1 <1>        -0.1174
     20 C20        -8.8345    1.3869   -1.5767 C.ar      1 <1>        -0.1085
     21 C21       -10.2033    1.2131   -1.4834 C.ar      1 <1>        -0.1076
     22 C22       -10.7262    0.2712   -0.6164 C.ar      1 <1>        -0.1021
     23 C23        -9.8823   -0.5030    0.1555 C.ar      1 <1>        -0.1107
     24 C24        -7.8909   -2.5370    0.6303 C.3       1 <1>        -0.1431
     25 C25        -7.0659   -3.3500    1.6267 C.3       1 <1>        -0.0291
     26 N26        -0.5320   -2.7246    1.0766 N.2       1 <1>        -0.3664
     27 H27         0.2851    2.0043   -1.1210 H         1 <1>         0.0350
     28 H28        -0.3082    1.8964    0.5537 H         1 <1>         0.0350
     29 H29         1.4412    1.8743    0.2262 H         1 <1>         0.0350
     30 H30        -0.5555   -0.2740   -0.6196 H         1 <1>         0.0482
     31 H31         1.1940   -0.2962   -0.9472 H         1 <1>         0.0411
     32 H32         1.6507   -0.2708    1.4900 H         1 <1>         0.0899
     33 H33        -0.0988   -0.2486    1.8175 H         1 <1>         0.0899
     34 H34         2.7418   -2.2746    0.8032 H         1 <1>         0.1450
     35 H35         0.4580   -5.7560    0.7497 H         1 <1>         0.3516
     36 H36        -2.9647   -2.8602    2.1819 H         1 <1>         0.1461
     37 H37        -3.1278   -2.7260    0.4145 H         1 <1>         0.1461
     38 H38        -5.5525   -1.1304    2.6110 H         1 <1>         0.1162
     39 H39        -4.3058   -1.3303    1.3514 H         1 <1>         0.1234
     40 H40        -6.1125    0.3204    0.7210 H         1 <1>         0.0728
     41 H41        -5.9738   -1.0455   -0.4126 H         1 <1>         0.0370
     42 H42        -6.9164    0.7568   -0.8764 H         1 <1>         0.1145
     43 H43        -8.4293    2.1235   -2.2548 H         1 <1>         0.1169
     44 H44       -10.8653    1.8146   -2.0887 H         1 <1>         0.1088
     45 H45       -11.7957    0.1379   -0.5459 H         1 <1>         0.1258
     46 H46       -10.2914   -1.2387    0.8321 H         1 <1>         0.1221
     47 H47        -8.9498   -2.7543    0.7700 H         1 <1>         0.0754
     48 H48        -7.5954   -2.8028   -0.3846 H         1 <1>         0.0396
     49 H49        -7.1514   -4.4112    1.3930 H         1 <1>         0.1257
     50 H50        -7.4271   -3.1648    2.6383 H         1 <1>         0.1113
@<TRIPOS>BOND
     1    1    2 1
     2    1   27 1
     3    1   28 1
     4    1   29 1
     5    2    3 1
     6    2   30 1
     7    2   31 1
     8    3    4 1
     9    3   32 1
    10    3   33 1
    11    4   26 1
    12    4    5 2
    13    5    6 1
    14    5   34 1
    15    6    7 2
    16    6    8 am
    17    8    9 1
    18    8   35 1
    19    9   10 1
    20    9   26 2
    21   10   11 1
    22   11   12 1
    23   11   36 1
    24   11   37 1
    25   12   13 2
    26   12   14 am
    27   14   25 1
    28   14   15 1
    29   15   16 1
    30   15   38 1
    31   15   39 1
    32   16   17 1
    33   16   40 1
    34   16   41 1
    35   17   18 1
    36   17   24 1
    37   18   23 ar
    38   18   19 ar
    39   19   20 ar
    40   19   42 1
    41   20   21 ar
    42   20   43 1
    43   21   22 ar
    44   21   44 1
    45   22   23 ar
    46   22   45 1
    47   23   46 1
    48   24   25 1
    49   24   47 1
    50   24   48 1
    51   25   49 1
    52   25   50 1
@<TRIPOS>Similarity
1.2626
@<TRIPOS>ShapeSim
0.7626
@<TRIPOS>PharmSim
0.5000
# END
# Name:		C1=CC=C(C=C1)C(=O)C=CC2=CC=CC=C2O
# Created and modified by SHAFTS on Sun Mar 21 16:57:45 2021

# 

@<TRIPOS>MOLECULE
C1=CC=C(C=C1)C(=O)C=CC2=CC=CC=C2O
   29    30     0
SMALL
USER_CHARGE


@<TRIPOS>ATOM
      1 O1         -4.4806   -4.8094    1.2776 O.2       1 <1>        -0.4648
      2 C2         -4.4460   -3.5961    1.3744 C.2       1 <1>         0.0809
      3 C3         -3.2038   -2.9159    1.3175 C.2       1 <1>        -0.0148
      4 C4         -2.0567   -3.6146    1.1557 C.2       1 <1>        -0.0627
      5 C5         -0.7700   -2.9099    1.0968 C.ar      1 <1>        -0.0432
      6 C6         -0.7244   -1.5159    1.2133 C.ar      1 <1>        -0.0849
      7 C7          0.4869   -0.8620    1.1569 C.ar      1 <1>        -0.0989
      8 C8          1.6610   -1.5773    0.9854 C.ar      1 <1>        -0.0965
      9 C9          1.6316   -2.9539    0.8685 C.ar      1 <1>        -0.0649
     10 C10         0.4242   -3.6310    0.9289 C.ar      1 <1>        -0.0244
     11 O11         0.3941   -4.9826    0.8146 O.3       1 <1>        -0.4294
     12 C12        -5.7009   -2.8317    1.5453 C.ar      1 <1>        -0.0089
     13 C13        -5.6652   -1.4401    1.6508 C.ar      1 <1>        -0.0833
     14 C14        -6.8389   -0.7332    1.8100 C.ar      1 <1>        -0.0999
     15 C15        -8.0500   -1.4005    1.8652 C.ar      1 <1>        -0.1014
     16 C16        -8.0924   -2.7797    1.7611 C.ar      1 <1>        -0.0968
     17 C17        -6.9264   -3.4981    1.5959 C.ar      1 <1>        -0.0792
     18 H18        -3.1731   -1.8397    1.4033 H         1 <1>         0.1182
     19 H19        -2.0874   -4.6907    1.0698 H         1 <1>         0.1579
     20 H20        -1.6369   -0.9539    1.3467 H         1 <1>         0.1307
     21 H21         0.5214    0.2138    1.2465 H         1 <1>         0.1196
     22 H22         2.6055   -1.0556    0.9426 H         1 <1>         0.1261
     23 H23         2.5516   -3.5032    0.7348 H         1 <1>         0.1247
     24 H24         0.4718   -5.4504    1.6573 H         1 <1>         0.3661
     25 H25        -4.7206   -0.9182    1.6083 H         1 <1>         0.1294
     26 H26        -6.8127    0.3433    1.8921 H         1 <1>         0.1195
     27 H27        -8.9661   -0.8423    1.9903 H         1 <1>         0.1263
     28 H28        -9.0409   -3.2944    1.8049 H         1 <1>         0.1204
     29 H29        -6.9609   -4.5745    1.5145 H         1 <1>         0.1344
@<TRIPOS>BOND
     1    1    2 2
     2    2    3 1
     3    2   12 1
     4    3    4 2
     5    3   18 1
     6    4    5 1
     7    4   19 1
     8    5   10 ar
     9    5    6 ar
    10    6    7 ar
    11    6   20 1
    12    7    8 ar
    13    7   21 1
    14    8    9 ar
    15    8   22 1
    16    9   10 ar
    17    9   23 1
    18   10   11 1
    19   11   24 1
    20   12   17 ar
    21   12   13 ar
    22   13   14 ar
    23   13   25 1
    24   14   15 ar
    25   14   26 1
    26   15   16 ar
    27   15   27 1
    28   16   17 ar
    29   16   28 1
    30   17   29 1
@<TRIPOS>Similarity
1.2515
@<TRIPOS>ShapeSim
0.8413
@<TRIPOS>PharmSim
0.4102
# END
# Name:		C1=CC=C(C(=C1)C(=O)NC2=NC(=CS2)C3=CC=CC=N3)Br
# Created and modified by SHAFTS on Sun Mar 21 16:57:45 2021

# 

@<TRIPOS>MOLECULE
C1=CC=C(C(=C1)C(=O)NC2=NC(=CS2)C3=CC=CC=N3)Br
   31    33     0
SMALL
USER_CHARGE


@<TRIPOS>ATOM
      1 O1         -2.2251   -5.1120    1.0464 O.2       1 <1>        -0.4399
      2 C2         -1.7605   -3.9896    1.0945 C.2       1 <1>         0.1444
      3 N3         -2.5763   -2.9288    1.2551 N.am      1 <1>        -0.2503
      4 C4         -3.9473   -3.1180    1.3656 C.2       1 <1>         0.0979
      5 N5         -4.8235   -2.1748    1.5169 N.2       1 <1>        -0.3567
      6 C6         -6.0949   -2.5423    1.6040 C.2       1 <1>         0.0134
      7 C7         -7.1927   -1.5626    1.7779 C.ar      1 <1>         0.0097
      8 C8         -6.8999   -0.2013    1.8496 C.ar      1 <1>        -0.0454
      9 C9         -7.9358    0.7013    2.0119 C.ar      1 <1>        -0.0871
     10 C10        -9.2327    0.2137    2.0976 C.ar      1 <1>        -0.0734
     11 C11        -9.4518   -1.1488    2.0188 C.ar      1 <1>        -0.0413
     12 N12        -8.4479   -1.9874    1.8585 N.ar      1 <1>        -0.3838
     13 C13        -6.3186   -3.8672    1.5231 C.2       1 <1>         0.0325
     14 S14        -4.7669   -4.6758    1.3141 S.3       1 <1>         0.0011
     15 C15        -0.3011   -3.7889    0.9831 C.ar      1 <1>         0.0447
     16 C16         0.2365   -2.5020    1.0437 C.ar      1 <1>        -0.0631
     17 C17         1.6001   -2.3216    0.9389 C.ar      1 <1>        -0.0877
     18 C18         2.4353   -3.4123    0.7742 C.ar      1 <1>        -0.0867
     19 C19         1.9105   -4.6907    0.7126 C.ar      1 <1>        -0.0695
     20 C20         0.5482   -4.8868    0.8223 C.ar      1 <1>         0.0015
     21 Br21       -0.1678   -6.6350    0.7388 Br        1 <1>        -0.0681
     22 H22        -2.2055   -2.0333    1.2935 H         1 <1>         0.3502
     23 H23        -5.8789    0.1436    1.7797 H         1 <1>         0.1382
     24 H24        -7.7398    1.7617    2.0711 H         1 <1>         0.1358
     25 H25       -10.0629    0.8927    2.2248 H         1 <1>         0.1257
     26 H26       -10.4597   -1.5309    2.0850 H         1 <1>         0.1996
     27 H27        -7.2829   -4.3508    1.5735 H         1 <1>         0.1683
     28 H28        -0.4139   -1.6494    1.1720 H         1 <1>         0.1403
     29 H29         2.0168   -1.3262    0.9854 H         1 <1>         0.1330
     30 H30         3.5021   -3.2649    0.6927 H         1 <1>         0.1388
     31 H31         2.5681   -5.5377    0.5831 H         1 <1>         0.1381
@<TRIPOS>BOND
     1    1    2 2
     2    2    3 am
     3    2   15 1
     4    3    4 1
     5    3   22 1
     6    4   14 1
     7    4    5 2
     8    5    6 1
     9    6    7 1
    10    6   13 2
    11    7   12 ar
    12    7    8 ar
    13    8    9 ar
    14    8   23 1
    15    9   10 ar
    16    9   24 1
    17   10   11 ar
    18   10   25 1
    19   11   12 ar
    20   11   26 1
    21   13   14 1
    22   13   27 1
    23   15   20 ar
    24   15   16 ar
    25   16   17 ar
    26   16   28 1
    27   17   18 ar
    28   17   29 1
    29   18   19 ar
    30   18   30 1
    31   19   20 ar
    32   19   31 1
    33   20   21 1
@<TRIPOS>Similarity
1.2473
@<TRIPOS>ShapeSim
0.9083
@<TRIPOS>PharmSim
0.3390
# END
# Name:		CC(C1=CC=CC=C1)NC(=O)CCC2=NC3=CC=CC=C3C(=O)N2
# Created and modified by SHAFTS on Sun Mar 21 16:57:45 2021

# 

@<TRIPOS>MOLECULE
CC(C1=CC=CC=C1)NC(=O)CCC2=NC3=CC=CC=C3C(=O)N2
   43    45     0
SMALL
USER_CHARGE


@<TRIPOS>ATOM
      1 C1         -7.3103   -3.3891   -0.3004 C.3       1 <1>        -0.0376
      2 C2         -6.8328   -2.9608    1.0888 C.3       1 <1>        -0.0184
      3 H3         -6.9882   -3.7771    1.7941 H         1 <1>         0.1318
      4 N4         -5.4073   -2.6275    1.0338 N.am      1 <1>        -0.3534
      5 C5         -4.4827   -3.6002    1.1576 C.2       1 <1>         0.0687
      6 O6         -4.8306   -4.7513    1.3145 O.2       1 <1>        -0.4995
      7 C7         -3.0162   -3.2573    1.1011 C.3       1 <1>         0.0739
      8 C8         -2.1876   -4.5328    1.2663 C.3       1 <1>         0.0581
      9 C9         -0.7211   -4.1900    1.2098 C.2       1 <1>         0.0194
     10 N10        -0.3853   -2.9465    1.0461 N.2       1 <1>        -0.3670
     11 C11         0.9146   -2.5629    0.9861 C.ar      1 <1>        -0.0128
     12 C12         1.2765   -1.2261    0.8106 C.ar      1 <1>        -0.0526
     13 C13         2.6087   -0.8819    0.7560 C.ar      1 <1>        -0.0835
     14 C14         3.5986   -1.8484    0.8733 C.ar      1 <1>        -0.0908
     15 C15         3.2663   -3.1744    1.0468 C.ar      1 <1>        -0.0649
     16 C16         1.9244   -3.5437    1.1052 C.ar      1 <1>         0.0476
     17 C17         1.5099   -4.9426    1.2883 C.2       1 <1>         0.1251
     18 O18         2.3295   -5.8361    1.3967 O.2       1 <1>        -0.4676
     19 N19         0.1815   -5.1972    1.3384 N.am      1 <1>        -0.2641
     20 C20        -7.6141   -1.7531    1.5383 C.ar      1 <1>        -0.0902
     21 C21        -7.2775   -0.4976    1.0676 C.ar      1 <1>        -0.1009
     22 C22        -7.9942    0.6101    1.4799 C.ar      1 <1>        -0.1097
     23 C23        -9.0478    0.4625    2.3626 C.ar      1 <1>        -0.1106
     24 C24        -9.3849   -0.7930    2.8326 C.ar      1 <1>        -0.1065
     25 C25        -8.6710   -1.9014    2.4169 C.ar      1 <1>        -0.0985
     26 H26        -7.1550   -2.5727   -1.0057 H         1 <1>         0.0450
     27 H27        -6.7453   -4.2626   -0.6254 H         1 <1>         0.0521
     28 H28        -8.3710   -3.6370   -0.2595 H         1 <1>         0.0521
     29 H29        -5.1290   -1.7068    0.9084 H         1 <1>         0.2951
     30 H30        -2.7874   -2.7973    0.1400 H         1 <1>         0.1154
     31 H31        -2.7748   -2.5608    1.9040 H         1 <1>         0.1154
     32 H32        -2.4164   -4.9929    2.2276 H         1 <1>         0.1205
     33 H33        -2.4290   -5.2295    0.4634 H         1 <1>         0.1205
     34 H34         0.5153   -0.4657    0.7178 H         1 <1>         0.1434
     35 H35         2.8870    0.1527    0.6197 H         1 <1>         0.1403
     36 H36         4.6380   -1.5584    0.8279 H         1 <1>         0.1196
     37 H37         4.0407   -3.9219    1.1371 H         1 <1>         0.1464
     38 H38        -0.1290   -6.1083    1.4585 H         1 <1>         0.3459
     39 H39        -6.4544   -0.3823    0.3779 H         1 <1>         0.1134
     40 H40        -7.7307    1.5910    1.1128 H         1 <1>         0.1116
     41 H41        -9.6072    1.3281    2.6853 H         1 <1>         0.1115
     42 H42       -10.2078   -0.9083    3.5224 H         1 <1>         0.1196
     43 H43        -8.9345   -2.8823    2.7841 H         1 <1>         0.1160
@<TRIPOS>BOND
     1    1    2 1
     2    1   26 1
     3    1   27 1
     4    1   28 1
     5    2    3 1
     6    2    4 1
     7    2   20 1
     8    4    5 am
     9    4   29 1
    10    5    6 2
    11    5    7 1
    12    7    8 1
    13    7   30 1
    14    7   31 1
    15    8    9 1
    16    8   32 1
    17    8   33 1
    18    9   19 1
    19    9   10 2
    20   10   11 1
    21   11   16 ar
    22   11   12 ar
    23   12   13 ar
    24   12   34 1
    25   13   14 ar
    26   13   35 1
    27   14   15 ar
    28   14   36 1
    29   15   16 ar
    30   15   37 1
    31   16   17 1
    32   17   18 2
    33   17   19 am
    34   19   38 1
    35   20   25 ar
    36   20   21 ar
    37   21   22 ar
    38   21   39 1
    39   22   23 ar
    40   22   40 1
    41   23   24 ar
    42   23   41 1
    43   24   25 ar
    44   24   42 1
    45   25   43 1
@<TRIPOS>Similarity
1.2435
@<TRIPOS>ShapeSim
0.8244
@<TRIPOS>PharmSim
0.4191
# END
# Name:		O=C(/C=C/C1=CC=CC=C1)C2=CC=CN2
# Created and modified by SHAFTS on Sun Mar 21 16:57:45 2021

# 

@<TRIPOS>MOLECULE
O=C(/C=C/C1=CC=CC=C1)C2=CC=CN2
   26    27     0
SMALL
USER_CHARGE


@<TRIPOS>ATOM
      1 O1         -2.3243   -5.4081    1.0325 O.2       1 <1>        -0.4674
      2 C2         -2.1801   -4.2000    1.1072 C.2       1 <1>         0.0943
      3 C3         -3.3474   -3.3326    1.2818 C.2       1 <1>        -0.0015
      4 C4         -4.5820   -3.8708    1.3600 C.2       1 <1>        -0.0656
      5 C5         -5.7548   -2.9993    1.5356 C.ar      1 <1>        -0.0808
      6 C6         -5.5941   -1.6123    1.6159 C.ar      1 <1>        -0.0936
      7 C7         -6.6978   -0.8025    1.7804 C.ar      1 <1>        -0.1023
      8 C8         -7.9623   -1.3588    1.8660 C.ar      1 <1>        -0.1045
      9 C9         -8.1296   -2.7306    1.7873 C.ar      1 <1>        -0.1008
     10 C10        -7.0365   -3.5534    1.6171 C.ar      1 <1>        -0.0915
     11 C11        -0.8368   -3.6152    1.0281 C.2       1 <1>        -0.0005
     12 C12        -0.5258   -2.2724    1.1036 C.2       1 <1>        -0.0870
     13 C13         0.8628   -2.1652    0.9839 C.2       1 <1>        -0.1002
     14 C14         1.3657   -3.4156    0.8404 C.2       1 <1>        -0.0817
     15 N15         0.3431   -4.3058    0.8713 N.pl3     1 <1>        -0.3679
     16 H16        -3.2196   -2.2623    1.3480 H         1 <1>         0.1343
     17 H17        -4.7098   -4.9412    1.2939 H         1 <1>         0.1546
     18 H18        -4.6080   -1.1766    1.5496 H         1 <1>         0.1264
     19 H19        -6.5755    0.2687    1.8430 H         1 <1>         0.1205
     20 H20        -8.8229   -0.7193    1.9952 H         1 <1>         0.1218
     21 H21        -9.1195   -3.1572    1.8553 H         1 <1>         0.1210
     22 H22        -7.1686   -4.6236    1.5559 H         1 <1>         0.1289
     23 H23        -1.2236   -1.4581    1.2312 H         1 <1>         0.1344
     24 H24         1.4336   -1.2485    1.0020 H         1 <1>         0.1180
     25 H25         2.4105   -3.6630    0.7249 H         1 <1>         0.1824
     26 H26         0.4286   -5.2686    0.7902 H         1 <1>         0.3387
@<TRIPOS>BOND
     1    1    2 2
     2    2    3 1
     3    2   11 1
     4    3    4 2
     5    3   16 1
     6    4    5 1
     7    4   17 1
     8    5   10 ar
     9    5    6 ar
    10    6    7 ar
    11    6   18 1
    12    7    8 ar
    13    7   19 1
    14    8    9 ar
    15    8   20 1
    16    9   10 ar
    17    9   21 1
    18   10   22 1
    19   11   15 1
    20   11   12 2
    21   12   13 1
    22   12   23 1
    23   13   14 2
    24   13   24 1
    25   14   15 1
    26   14   25 1
    27   15   26 1
@<TRIPOS>Similarity
1.2427
@<TRIPOS>ShapeSim
0.8265
@<TRIPOS>PharmSim
0.4162
# END
# Name:		NC1=NNC2=NC3=CC=CC=C3N=C21
# Created and modified by SHAFTS on Sun Mar 21 16:57:45 2021

# 

@<TRIPOS>MOLECULE
NC1=NNC2=NC3=CC=CC=C3N=C21
   21    23     0
SMALL
USER_CHARGE


@<TRIPOS>ATOM
      1 N1         -3.0283   -3.5082    1.2450 N.pl3     1 <1>        -0.3588
      2 C2         -4.3787   -3.8559    1.3413 C.2       1 <1>         0.0671
      3 N3         -4.8656   -5.0642    1.2936 N.2       1 <1>        -0.2993
      4 N4         -6.2565   -5.0582    1.4213 N.pl3     1 <1>        -0.2704
      5 C5         -6.6987   -3.7674    1.5603 C.ar      1 <1>         0.0776
      6 N6         -7.8891   -3.2204    1.7114 N.ar      1 <1>        -0.3387
      7 C7         -7.9963   -1.8952    1.8228 C.ar      1 <1>         0.0147
      8 C8         -9.2509   -1.2771    1.9859 C.ar      1 <1>        -0.0414
      9 C9         -9.3236    0.0757    2.0966 C.ar      1 <1>        -0.0788
     10 C10        -8.1833    0.8757    2.0530 C.ar      1 <1>        -0.0803
     11 C11        -6.9434    0.3417    1.8973 C.ar      1 <1>        -0.0480
     12 C12        -6.7977   -1.0546    1.7771 C.ar      1 <1>         0.0203
     13 N13        -5.5976   -1.6127    1.6234 N.ar      1 <1>        -0.3303
     14 C14        -5.4999   -2.9264    1.5204 C.ar      1 <1>         0.1185
     15 H15        -2.7625   -2.5767    1.2963 H         1 <1>         0.2882
     16 H16        -2.3566   -4.1986    1.1310 H         1 <1>         0.2803
     17 H17        -6.8227   -5.8457    1.4127 H         1 <1>         0.3902
     18 H18       -10.1501   -1.8743    2.0226 H         1 <1>         0.1449
     19 H19       -10.2895    0.5424    2.2212 H         1 <1>         0.1412
     20 H20        -8.2878    1.9466    2.1450 H         1 <1>         0.1322
     21 H21        -6.0753    0.9836    1.8658 H         1 <1>         0.1509
@<TRIPOS>BOND
     1    1    2 1
     2    1   15 1
     3    1   16 1
     4    2   14 1
     5    2    3 2
     6    3    4 1
     7    4    5 1
     8    4   17 1
     9    5   14 ar
    10    5    6 ar
    11    6    7 ar
    12    7   12 ar
    13    7    8 ar
    14    8    9 ar
    15    8   18 1
    16    9   10 ar
    17    9   19 1
    18   10   11 ar
    19   10   20 1
    20   11   12 ar
    21   11   21 1
    22   12   13 ar
    23   13   14 ar
@<TRIPOS>Similarity
1.2393
@<TRIPOS>ShapeSim
0.7091
@<TRIPOS>PharmSim
0.5301
# END
# Name:		C1=CC2=C(C=C1Cl)NN=C2NC(=O)CCC(=O)O
# Created and modified by SHAFTS on Sun Mar 21 16:57:45 2021

# 

@<TRIPOS>MOLECULE
C1=CC2=C(C=C1Cl)NN=C2NC(=O)CCC(=O)O
   27    28     0
SMALL
USER_CHARGE


@<TRIPOS>ATOM
      1 O1          2.0661   -2.9479    0.8510 O.co2     1 <1>        -0.5000
      2 C2          1.8210   -4.1395    0.7708 C.2       1 <1>         0.4900
      3 O3          2.7291   -4.9403    0.6270 O.co2     1 <1>        -0.5000
      4 C4          0.3963   -4.6232    0.8556 C.3       1 <1>        -0.1700
      5 C5         -0.5385   -3.4262    1.0408 C.3       1 <1>        -0.1100
      6 C6         -1.9632   -3.9098    1.1256 C.2       1 <1>         0.5000
      7 O7         -2.2070   -5.0954    1.0459 O.2       1 <1>        -0.4900
      8 N8         -2.9666   -3.0252    1.2901 N.am      1 <1>        -0.6400
      9 C9         -4.2895   -3.4743    1.3689 C.2       1 <1>         0.3300
     10 N10        -4.6871   -4.7170    1.3037 N.2       1 <1>        -0.2300
     11 N11        -6.0793   -4.7816    1.4193 N.pl3     1 <1>        -0.5000
     12 C12        -6.5788   -3.5134    1.5645 C.ar      1 <1>         0.1500
     13 C13        -7.8626   -2.9959    1.7176 C.ar      1 <1>        -0.1400
     14 C14        -8.0403   -1.6358    1.8423 C.ar      1 <1>         0.0200
     15 Cl15       -9.6410   -0.9916    2.0330 Cl        1 <1>        -0.0600
     16 C16        -6.9496   -0.7737    1.8172 C.ar      1 <1>        -0.1600
     17 C17        -5.6830   -1.2598    1.6678 C.ar      1 <1>        -0.0200
     18 C18        -5.4771   -2.6368    1.5457 C.ar      1 <1>        -0.1800
     19 H19         0.1357   -5.1490   -0.0629 H         1 <1>         0.0700
     20 H20         0.2923   -5.3000    1.7037 H         1 <1>         0.0700
     21 H21        -0.2779   -2.9004    1.9594 H         1 <1>         0.1000
     22 H22        -0.4344   -2.7494    0.1927 H         1 <1>         0.1000
     23 H23        -2.7716   -2.0771    1.3539 H         1 <1>         0.4200
     24 H24        -6.6077   -5.5948    1.3995 H         1 <1>         0.4400
     25 H25        -8.7154   -3.6582    1.7381 H         1 <1>         0.1400
     26 H26        -7.1061    0.2902    1.9166 H         1 <1>         0.1400
     27 H27        -4.8418   -0.5827    1.6490 H         1 <1>         0.1400
@<TRIPOS>BOND
     1    1    2 ar
     2    2    3 ar
     3    2    4 1
     4    4    5 1
     5    4   19 1
     6    4   20 1
     7    5    6 1
     8    5   21 1
     9    5   22 1
    10    6    7 2
    11    6    8 am
    12    8    9 1
    13    8   23 1
    14    9   18 1
    15    9   10 2
    16   10   11 1
    17   11   12 1
    18   11   24 1
    19   12   18 ar
    20   12   13 ar
    21   13   14 ar
    22   13   25 1
    23   14   15 1
    24   14   16 ar
    25   16   17 ar
    26   16   26 1
    27   17   18 ar
    28   17   27 1
@<TRIPOS>Similarity
1.2299
@<TRIPOS>ShapeSim
0.8495
@<TRIPOS>PharmSim
0.3804
# END
# Name:		O=C1C(C(OCC)=O)=CNC2=CC(Cl)=C([H])C(Cl)=C21
# Created and modified by SHAFTS on Sun Mar 21 16:57:45 2021

# 

@<TRIPOS>MOLECULE
O=C1C(C(OCC)=O)=CNC2=CC(Cl)=C([H])C(Cl)=C21
   27    28     0
SMALL
USER_CHARGE


@<TRIPOS>ATOM
      1 C1          1.5380   -3.2200    0.8367 C.3       1 <1>        -0.0325
      2 C2          0.2703   -4.0750    0.8914 C.3       1 <1>         0.0263
      3 O3         -0.8867   -3.2145    1.0624 O.3       1 <1>        -0.3526
      4 C4         -2.0914   -3.8151    1.1299 C.2       1 <1>         0.1924
      5 O5         -2.1726   -5.0250    1.0481 O.2       1 <1>        -0.4429
      6 C6         -3.3084   -3.0059    1.3027 C.ar      1 <1>         0.1214
      7 C7         -3.2234   -1.6065    1.3922 C.ar      1 <1>         0.0216
      8 N8         -4.2890   -0.8634    1.5463 N.ar      1 <1>        -0.3681
      9 C9         -5.5175   -1.3932    1.6267 C.ar      1 <1>         0.0063
     10 C10        -6.6438   -0.5719    1.7916 C.ar      1 <1>        -0.0085
     11 C11        -7.8855   -1.1304    1.8709 C.ar      1 <1>         0.0198
     12 Cl12       -9.2719   -0.1057    2.0747 Cl        1 <1>        -0.1149
     13 C13        -8.0587   -2.5102    1.7905 C.ar      1 <1>        -0.0273
     14 C14        -6.9876   -3.3393    1.6303 C.ar      1 <1>         0.0319
     15 Cl15       -7.2202   -5.0567    1.5312 Cl        1 <1>        -0.1006
     16 C16        -5.6958   -2.7956    1.5455 C.ar      1 <1>         0.0387
     17 C17        -4.5643   -3.6228    1.3738 C.ar      1 <1>         0.0517
     18 O18        -4.6886   -4.9665    1.2848 O.3       1 <1>        -0.3921
     19 H19         2.4066   -3.8660    0.7084 H         1 <1>         0.0585
     20 H20         1.4732   -2.5274   -0.0023 H         1 <1>         0.0514
     21 H21         1.6374   -2.6578    1.7652 H         1 <1>         0.0514
     22 H22         0.1709   -4.6372   -0.0371 H         1 <1>         0.1011
     23 H23         0.3351   -4.7676    1.7305 H         1 <1>         0.1011
     24 H24        -2.2548   -1.1326    1.3328 H         1 <1>         0.2464
     25 H25        -6.5273    0.4999    1.8558 H         1 <1>         0.1708
     26 H26        -9.0523   -2.9283    1.8559 H         1 <1>         0.1588
     27 H27        -4.8096   -5.2914    0.3820 H         1 <1>         0.3898
@<TRIPOS>BOND
     1    1    2 1
     2    1   19 1
     3    1   20 1
     4    1   21 1
     5    2    3 1
     6    2   22 1
     7    2   23 1
     8    3    4 1
     9    4    5 2
    10    4    6 1
    11    6   17 ar
    12    6    7 ar
    13    7    8 ar
    14    7   24 1
    15    8    9 ar
    16    9   16 ar
    17    9   10 ar
    18   10   11 ar
    19   10   25 1
    20   11   12 1
    21   11   13 ar
    22   13   14 ar
    23   13   26 1
    24   14   15 1
    25   14   16 ar
    26   16   17 ar
    27   17   18 1
    28   18   27 1
@<TRIPOS>Similarity
1.2261
@<TRIPOS>ShapeSim
0.7899
@<TRIPOS>PharmSim
0.4362
# END
# Name:		C1=CSC(=C1)C2=CC(=NC(=C2C#N)SCC(=O)C3=CC=CS3)C4=CC=CS4
# Created and modified by SHAFTS on Sun Mar 21 16:57:45 2021

# 

@<TRIPOS>MOLECULE
C1=CSC(=C1)C2=CC(=NC(=C2C#N)SCC(=O)C3=CC=CS3)C4=CC=CS4
   39    42     0
SMALL
USER_CHARGE


@<TRIPOS>ATOM
      1 N1          0.5506   -7.3968    0.6368 N.1       1 <1>        -0.3520
      2 C2          0.5866   -6.2641    0.7151 C.1       1 <1>         0.0783
      3 C3          0.6318   -4.8362    0.8138 C.ar      1 <1>         0.1200
      4 C4          1.8680   -4.1486    0.7511 C.ar      1 <1>        -0.0008
      5 C5          3.1351   -4.8827    0.5833 C.2       1 <1>        -0.0085
      6 C6          4.0883   -4.5950   -0.3292 C.2       1 <1>        -0.0894
      7 C7          5.1876   -5.4241   -0.2942 C.2       1 <1>        -0.1006
      8 C8          5.1439   -6.3852    0.6356 C.2       1 <1>        -0.0432
      9 S9          3.6437   -6.2646    1.5453 S.3       1 <1>        -0.1146
     10 C10         1.8539   -2.7565    0.8522 C.ar      1 <1>        -0.0119
     11 C11         0.6362   -2.0978    1.0097 C.ar      1 <1>         0.0054
     12 C12         0.6163   -0.6269    1.1169 C.2       1 <1>         0.0199
     13 C13        -0.4914    0.1283    1.2768 C.2       1 <1>        -0.0765
     14 C14        -0.2582    1.4837    1.3521 C.2       1 <1>        -0.0948
     15 C15         1.0266    1.8444    1.2556 C.2       1 <1>        -0.0390
     16 S16         2.0326    0.4147    1.0639 S.3       1 <1>        -0.1032
     17 N17        -0.5099   -2.7735    1.0646 N.ar      1 <1>        -0.3538
     18 C18        -0.5514   -4.0916    0.9689 C.ar      1 <1>         0.0717
     19 S19        -2.1022   -4.9241    1.0494 S.3       1 <1>        -0.0782
     20 C20        -3.2090   -3.5073    1.2588 C.3       1 <1>         0.1084
     21 C21        -4.6329   -3.9919    1.3538 C.2       1 <1>         0.0977
     22 O22        -4.8757   -5.1799    1.2865 O.2       1 <1>        -0.4480
     23 C23        -5.6847   -3.0644    1.5211 C.2       1 <1>         0.0483
     24 C24        -7.0156   -3.3803    1.6258 C.2       1 <1>        -0.0786
     25 C25        -7.8222   -2.2814    1.7820 C.2       1 <1>        -0.0985
     26 C26        -7.1824   -1.1040    1.8052 C.2       1 <1>        -0.0367
     27 S27        -5.4984   -1.3198    1.6363 S.3       1 <1>        -0.0930
     28 H28         3.9957   -3.7795   -1.0312 H         1 <1>         0.1400
     29 H29         6.0234   -5.3073   -0.9680 H         1 <1>         0.1284
     30 H30         5.9153   -7.1218    0.8045 H         1 <1>         0.1479
     31 H31         2.7763   -2.1965    0.8092 H         1 <1>         0.1518
     32 H32        -1.4822   -0.2968    1.3404 H         1 <1>         0.1462
     33 H33        -1.0540    2.2027    1.4793 H         1 <1>         0.1297
     34 H34         1.3913    2.8602    1.2938 H         1 <1>         0.1506
     35 H35        -2.9457   -2.9722    2.1711 H         1 <1>         0.1289
     36 H36        -3.1091   -2.8387    0.4037 H         1 <1>         0.1289
     37 H37        -7.3909   -4.3923    1.5887 H         1 <1>         0.1586
     38 H38        -8.8950   -2.3596    1.8786 H         1 <1>         0.1250
     39 H39        -7.6679   -0.1462    1.9206 H         1 <1>         0.1457
@<TRIPOS>BOND
     1    1    2 3
     2    2    3 1
     3    3   18 ar
     4    3    4 ar
     5    4    5 1
     6    4   10 ar
     7    5    9 1
     8    5    6 2
     9    6    7 1
    10    6   28 1
    11    7    8 2
    12    7   29 1
    13    8    9 1
    14    8   30 1
    15   10   11 ar
    16   10   31 1
    17   11   12 1
    18   11   17 ar
    19   12   16 1
    20   12   13 2
    21   13   14 1
    22   13   32 1
    23   14   15 2
    24   14   33 1
    25   15   16 1
    26   15   34 1
    27   17   18 ar
    28   18   19 1
    29   19   20 1
    30   20   21 1
    31   20   35 1
    32   20   36 1
    33   21   22 2
    34   21   23 1
    35   23   27 1
    36   23   24 2
    37   24   25 1
    38   24   37 1
    39   25   26 2
    40   25   38 1
    41   26   27 1
    42   26   39 1
@<TRIPOS>Similarity
1.2188
@<TRIPOS>ShapeSim
0.7653
@<TRIPOS>PharmSim
0.4534
# END
# Name:		CSC1=CC=CC=C1C(=O)NC2=NC(=CS2)C3=CC=CC=N3
# Created and modified by SHAFTS on Sun Mar 21 16:57:45 2021

# 

@<TRIPOS>MOLECULE
CSC1=CC=CC=C1C(=O)NC2=NC(=CS2)C3=CC=CC=N3
   35    37     0
SMALL
USER_CHARGE


@<TRIPOS>ATOM
      1 C1          1.3670   -7.5557    0.5561 C.3       1 <1>        -0.0035
      2 S2         -0.1111   -6.5240    0.7593 S.3       1 <1>        -0.1713
      3 C3          0.5503   -4.8920    0.8221 C.ar      1 <1>        -0.0235
      4 C4          1.9209   -4.6887    0.7131 C.ar      1 <1>        -0.0814
      5 C5          2.4359   -3.4099    0.7627 C.ar      1 <1>        -0.0959
      6 C6          1.5948   -2.3197    0.9211 C.ar      1 <1>        -0.0914
      7 C7          0.2334   -2.5006    1.0314 C.ar      1 <1>        -0.0656
      8 C8         -0.3055   -3.7886    0.9770 C.ar      1 <1>         0.0429
      9 C9         -1.7604   -3.9894    1.0942 C.2       1 <1>         0.1459
     10 O10        -2.2251   -5.1122    1.0464 O.2       1 <1>        -0.4384
     11 N11        -2.5762   -2.9286    1.2547 N.am      1 <1>        -0.2491
     12 C12        -3.9471   -3.1177    1.3652 C.2       1 <1>         0.0982
     13 N13        -4.8235   -2.1747    1.5165 N.2       1 <1>        -0.3567
     14 C14        -6.0948   -2.5423    1.6044 C.2       1 <1>         0.0134
     15 C15        -7.1928   -1.5626    1.7782 C.ar      1 <1>         0.0097
     16 C16        -6.9001   -0.2012    1.8489 C.ar      1 <1>        -0.0454
     17 C17        -7.9361    0.7014    2.0108 C.ar      1 <1>        -0.0871
     18 C18        -9.2329    0.2137    2.0971 C.ar      1 <1>        -0.0734
     19 C19        -9.4517   -1.1490    2.0194 C.ar      1 <1>        -0.0413
     20 N20        -8.4478   -1.9876    1.8599 N.ar      1 <1>        -0.3838
     21 C21        -6.3184   -3.8672    1.5245 C.2       1 <1>         0.0325
     22 S22        -4.7668   -4.6756    1.3141 S.3       1 <1>         0.0011
     23 H23         1.8814   -7.2765   -0.3635 H         1 <1>         0.0575
     24 H24         2.0340   -7.4063    1.4053 H         1 <1>         0.0575
     25 H25         1.0740   -8.6043    0.5044 H         1 <1>         0.0790
     26 H26         2.5834   -5.5328    0.5898 H         1 <1>         0.1259
     27 H27         3.5017   -3.2572    0.6778 H         1 <1>         0.1329
     28 H28         2.0088   -1.3230    0.9585 H         1 <1>         0.1268
     29 H29        -0.4170   -1.6473    1.1553 H         1 <1>         0.1362
     30 H30        -2.2055   -2.0330    1.2929 H         1 <1>         0.3506
     31 H31        -5.8791    0.1438    1.7786 H         1 <1>         0.1382
     32 H32        -7.7402    1.7618    2.0692 H         1 <1>         0.1358
     33 H33       -10.0632    0.8926    2.2239 H         1 <1>         0.1257
     34 H34       -10.4596   -1.5312    2.0864 H         1 <1>         0.1996
     35 H35        -7.2827   -4.3509    1.5756 H         1 <1>         0.1683
@<TRIPOS>BOND
     1    1    2 1
     2    1   23 1
     3    1   24 1
     4    1   25 1
     5    2    3 1
     6    3    8 ar
     7    3    4 ar
     8    4    5 ar
     9    4   26 1
    10    5    6 ar
    11    5   27 1
    12    6    7 ar
    13    6   28 1
    14    7    8 ar
    15    7   29 1
    16    8    9 1
    17    9   10 2
    18    9   11 am
    19   11   12 1
    20   11   30 1
    21   12   22 1
    22   12   13 2
    23   13   14 1
    24   14   15 1
    25   14   21 2
    26   15   20 ar
    27   15   16 ar
    28   16   17 ar
    29   16   31 1
    30   17   18 ar
    31   17   32 1
    32   18   19 ar
    33   18   33 1
    34   19   20 ar
    35   19   34 1
    36   21   22 1
    37   21   35 1
@<TRIPOS>Similarity
1.2184
@<TRIPOS>ShapeSim
0.8935
@<TRIPOS>PharmSim
0.3249
# END
# Name:		O=C(/C=C/C1=CC=CS1)C2=CNC3=NC=CC=C32
# Created and modified by SHAFTS on Sun Mar 21 16:57:45 2021

# 

@<TRIPOS>MOLECULE
O=C(/C=C/C1=CC=CS1)C2=CNC3=NC=CC=C32
   28    30     0
SMALL
USER_CHARGE


@<TRIPOS>ATOM
      1 O1         -2.1571   -5.0024    1.0487 O.2       1 <1>        -0.4664
      2 C2         -2.0978   -3.7875    1.1346 C.2       1 <1>         0.0837
      3 C3         -3.2825   -3.0313    1.3013 C.2       1 <1>        -0.0100
      4 C4         -4.4845   -3.6584    1.3656 C.2       1 <1>        -0.0607
      5 C5         -5.6691   -2.9023    1.5324 C.2       1 <1>        -0.0229
      6 C6         -6.9368   -3.4176    1.6166 C.2       1 <1>        -0.0970
      7 C7         -7.9034   -2.4543    1.7782 C.2       1 <1>        -0.1101
      8 C8         -7.4496   -1.1956    1.8249 C.2       1 <1>        -0.0464
      9 S9         -5.7509   -1.1514    1.6723 S.3       1 <1>        -0.1103
     10 C10        -0.7939   -3.1080    1.0710 C.2       1 <1>         0.0216
     11 C11        -0.5666   -1.7664    1.1577 C.2       1 <1>        -0.0301
     12 N12         0.7641   -1.5195    1.0579 N.pl3     1 <1>        -0.3295
     13 C13         1.4629   -2.6956    0.9012 C.ar      1 <1>        -0.0050
     14 N14         2.7536   -2.9684    0.7636 N.ar      1 <1>        -0.3802
     15 C15         3.1888   -4.2032    0.6259 C.ar      1 <1>        -0.0339
     16 C16         2.3189   -5.2814    0.6175 C.ar      1 <1>        -0.0614
     17 C17         0.9605   -5.0576    0.7574 C.ar      1 <1>        -0.0703
     18 C18         0.5251   -3.7427    0.9074 C.ar      1 <1>        -0.0208
     19 H19        -3.2299   -1.9553    1.3775 H         1 <1>         0.1135
     20 H20        -4.5370   -4.7345    1.2895 H         1 <1>         0.1697
     21 H21        -7.1538   -4.4742    1.5617 H         1 <1>         0.1385
     22 H22        -8.9530   -2.6951    1.8609 H         1 <1>         0.1166
     23 H23        -8.0755   -0.3241    1.9472 H         1 <1>         0.1396
     24 H24        -1.3304   -1.0136    1.2858 H         1 <1>         0.2249
     25 H25         1.1667   -0.6377    1.0916 H         1 <1>         0.3510
     26 H26         4.2486   -4.3797    0.5166 H         1 <1>         0.2091
     27 H27         2.6972   -6.2864    0.5026 H         1 <1>         0.1251
     28 H28         0.2588   -5.8786    0.7544 H         1 <1>         0.1517
@<TRIPOS>BOND
     1    1    2 2
     2    2    3 1
     3    2   10 1
     4    3    4 2
     5    3   19 1
     6    4    5 1
     7    4   20 1
     8    5    9 1
     9    5    6 2
    10    6    7 1
    11    6   21 1
    12    7    8 2
    13    7   22 1
    14    8    9 1
    15    8   23 1
    16   10   18 1
    17   10   11 2
    18   11   12 1
    19   11   24 1
    20   12   13 1
    21   12   25 1
    22   13   18 ar
    23   13   14 ar
    24   14   15 ar
    25   15   16 ar
    26   15   26 1
    27   16   17 ar
    28   16   27 1
    29   17   18 ar
    30   17   28 1
@<TRIPOS>Similarity
1.2128
@<TRIPOS>ShapeSim
0.8359
@<TRIPOS>PharmSim
0.3769
# END
# Name:		C1=CC2=C(C=C1O)OC3=C2C(=O)OC4=C3C=CC(=C4)O
# Created and modified by SHAFTS on Sun Mar 21 16:57:45 2021

# 

@<TRIPOS>MOLECULE
C1=CC2=C(C=C1O)OC3=C2C(=O)OC4=C3C=CC(=C4)O
   27    30     0
SMALL
USER_CHARGE


@<TRIPOS>ATOM
      1 O1         -7.3331   -5.0438    1.5170 O.2       1 <1>        -0.4371
      2 C2         -6.2979   -4.4043    1.4737 C.2       1 <1>         0.1972
      3 O3         -5.1305   -5.0510    1.3188 O.3       1 <1>        -0.2771
      4 C4         -3.9505   -4.3955    1.2637 C.ar      1 <1>         0.0428
      5 C5         -2.7652   -5.0980    1.1030 C.ar      1 <1>        -0.0193
      6 C6         -1.5607   -4.4158    1.0482 C.ar      1 <1>        -0.0604
      7 O7         -0.4021   -5.1063    0.8909 O.3       1 <1>        -0.5597
      8 C8         -1.5287   -3.0280    1.1529 C.ar      1 <1>        -0.0637
      9 C9         -2.6868   -2.3212    1.3119 C.ar      1 <1>        -0.0855
     10 C10        -3.9100   -2.9939    1.3692 C.ar      1 <1>        -0.0038
     11 C11        -5.1695   -2.2582    1.5400 C.2       1 <1>         0.0478
     12 C12        -6.3484   -2.9979    1.5812 C.2       1 <1>         0.0642
     13 C13        -7.4298   -2.0146    1.7574 C.ar      1 <1>        -0.0353
     14 C14        -8.8141   -2.1055    1.8709 C.ar      1 <1>        -0.0750
     15 C15        -9.5645   -0.9610    2.0320 C.ar      1 <1>        -0.0608
     16 C16        -8.9412    0.2813    2.0805 C.ar      1 <1>        -0.0290
     17 O17        -9.6888    1.4053    2.2391 O.3       1 <1>        -0.4357
     18 C18        -7.5655    0.3817    1.9690 C.ar      1 <1>        -0.0196
     19 C19        -6.7961   -0.7627    1.8063 C.ar      1 <1>         0.0402
     20 O20        -5.4660   -0.9563    1.6685 O.3       1 <1>        -0.3386
     21 H21        -2.7814   -6.1747    1.0211 H         1 <1>         0.1137
     22 H22        -0.5834   -2.5075    1.1083 H         1 <1>         0.1023
     23 H23        -2.6570   -1.2445    1.3926 H         1 <1>         0.1320
     24 H24        -9.2985   -3.0699    1.8326 H         1 <1>         0.1446
     25 H25       -10.6387   -1.0289    2.1203 H         1 <1>         0.1324
     26 H26        -9.8285    1.6577    3.1621 H         1 <1>         0.3567
     27 H27        -7.0902    1.3507    2.0081 H         1 <1>         0.1466
@<TRIPOS>BOND
     1    1    2 2
     2    2   12 1
     3    2    3 1
     4    3    4 1
     5    4   10 ar
     6    4    5 ar
     7    5    6 ar
     8    5   21 1
     9    6    7 1
    10    6    8 ar
    11    8    9 ar
    12    8   22 1
    13    9   10 ar
    14    9   23 1
    15   10   11 1
    16   11   20 1
    17   11   12 2
    18   12   13 1
    19   13   19 ar
    20   13   14 ar
    21   14   15 ar
    22   14   24 1
    23   15   16 ar
    24   15   25 1
    25   16   17 1
    26   16   18 ar
    27   17   26 1
    28   18   19 ar
    29   18   27 1
    30   19   20 1
@<TRIPOS>Similarity
1.2079
@<TRIPOS>ShapeSim
0.7640
@<TRIPOS>PharmSim
0.4439
# END
# Name:		O=C(O)C1=C3C(C=CC=C3)=NC(C2=CC=CC(Br)=C2)=C1
# Created and modified by SHAFTS on Sun Mar 21 16:57:45 2021

# 

@<TRIPOS>MOLECULE
O=C(O)C1=C3C(C=CC=C3)=NC(C2=CC=CC(Br)=C2)=C1
   29    31     0
SMALL
USER_CHARGE


@<TRIPOS>ATOM
      1 O1         -8.8868   -5.2887    1.5457 O.co2     1 <1>        -0.5000
      2 C2         -9.0252   -4.0918    1.7537 C.2       1 <1>         0.5300
      3 O3        -10.1337   -3.6381    2.0003 O.co2     1 <1>        -0.5000
      4 C4         -7.8530   -3.1950    1.7128 C.ar      1 <1>        -0.0600
      5 C5         -7.9996   -1.7441    1.8358 C.ar      1 <1>        -0.0800
      6 C6         -9.2542   -1.1469    1.9974 C.ar      1 <1>        -0.0700
      7 C7         -9.3455    0.2089    2.1084 C.ar      1 <1>        -0.1500
      8 C8         -8.2048    1.0076    2.0630 C.ar      1 <1>        -0.1000
      9 C9         -6.9690    0.4596    1.9068 C.ar      1 <1>        -0.1100
     10 C10        -6.8347   -0.9367    1.7888 C.ar      1 <1>         0.1200
     11 N11        -5.6370   -1.5022    1.6354 N.ar      1 <1>        -0.4800
     12 C12        -5.4819   -2.8042    1.5230 C.ar      1 <1>         0.1900
     13 C13        -4.1133   -3.3499    1.3558 C.ar      1 <1>        -0.0300
     14 C14        -3.9189   -4.7243    1.2285 C.ar      1 <1>        -0.0800
     15 C15        -2.6428   -5.2270    1.0731 C.ar      1 <1>        -0.1200
     16 C16        -1.5577   -4.3701    1.0441 C.ar      1 <1>        -0.0900
     17 C17        -1.7441   -3.0042    1.1705 C.ar      1 <1>        -0.1000
     18 Br18       -0.2542   -1.8403    1.1303 Br        1 <1>        -0.0600
     19 C19        -3.0168   -2.4897    1.3197 C.ar      1 <1>        -0.0500
     20 C20        -6.5657   -3.6947    1.5620 C.ar      1 <1>        -0.1500
     21 H21       -10.1452   -1.7562    2.0336 H         1 <1>         0.1700
     22 H22       -10.3143    0.6698    2.2328 H         1 <1>         0.1200
     23 H23        -8.3028    2.0794    2.1527 H         1 <1>         0.1200
     24 H24        -6.0950    1.0932    1.8733 H         1 <1>         0.1300
     25 H25        -4.7653   -5.3946    1.2517 H         1 <1>         0.1400
     26 H26        -2.4915   -6.2918    0.9745 H         1 <1>         0.1400
     27 H27        -0.5611   -4.7681    0.9228 H         1 <1>         0.1300
     28 H28        -3.1616   -1.4240    1.4182 H         1 <1>         0.1400
     29 H29        -6.4014   -4.7579    1.4665 H         1 <1>         0.1400
@<TRIPOS>BOND
     1    1    2 ar
     2    2    3 ar
     3    2    4 1
     4    4   20 ar
     5    4    5 ar
     6    5   10 ar
     7    5    6 ar
     8    6    7 ar
     9    6   21 1
    10    7    8 ar
    11    7   22 1
    12    8    9 ar
    13    8   23 1
    14    9   10 ar
    15    9   24 1
    16   10   11 ar
    17   11   12 ar
    18   12   13 1
    19   12   20 ar
    20   13   19 ar
    21   13   14 ar
    22   14   15 ar
    23   14   25 1
    24   15   16 ar
    25   15   26 1
    26   16   17 ar
    27   16   27 1
    28   17   18 1
    29   17   19 ar
    30   19   28 1
    31   20   29 1
@<TRIPOS>Similarity
1.1957
@<TRIPOS>ShapeSim
0.7560
@<TRIPOS>PharmSim
0.4398
# END
# Name:		COC1=CC2=C(C(=C1)OC)C(=O)C=C(O2)C3=CC=CC=C3
# Created and modified by SHAFTS on Sun Mar 21 16:57:45 2021

# 

@<TRIPOS>MOLECULE
COC1=CC2=C(C(=C1)OC)C(=O)C=C(O2)C3=CC=CC=C3
   35    37     0
SMALL
USER_CHARGE


@<TRIPOS>ATOM
      1 C1          1.1223   -1.3766    1.0170 C.3       1 <1>         0.0309
      2 O2         -0.1210   -0.6935    1.1891 O.3       1 <1>        -0.4041
      3 C3         -1.2426   -1.4569    1.2337 C.ar      1 <1>         0.0073
      4 C4         -1.1398   -2.8388    1.1190 C.ar      1 <1>        -0.0213
      5 C5         -2.2757   -3.6261    1.1637 C.ar      1 <1>         0.0275
      6 O6         -2.1775   -4.9750    1.0524 O.3       1 <1>        -0.3939
      7 C7         -0.8660   -5.5188    0.8907 C.3       1 <1>         0.0358
      8 C8         -3.5283   -3.0209    1.3250 C.ar      1 <1>         0.0798
      9 C9         -4.7633   -3.8209    1.3783 C.2       1 <1>         0.0905
     10 O10        -4.7356   -5.0371    1.2837 O.2       1 <1>        -0.4673
     11 C11        -5.9847   -3.1230    1.5443 C.2       1 <1>         0.0243
     12 C12        -5.9738   -1.7681    1.6462 C.2       1 <1>         0.0556
     13 C13        -7.2575   -1.0588    1.8188 C.ar      1 <1>        -0.0253
     14 C14        -8.4533   -1.7775    1.8805 C.ar      1 <1>        -0.0751
     15 C15        -9.6488   -1.1085    2.0418 C.ar      1 <1>        -0.0944
     16 C16        -9.6649    0.2715    2.1423 C.ar      1 <1>        -0.0984
     17 C17        -8.4839    0.9899    2.0819 C.ar      1 <1>        -0.0944
     18 C18        -7.2807    0.3334    1.9267 C.ar      1 <1>        -0.0751
     19 O19        -4.8411   -1.0495    1.5967 O.3       1 <1>        -0.3252
     20 C20        -3.6293   -1.6233    1.4406 C.ar      1 <1>         0.0647
     21 C21        -2.4790   -0.8514    1.3989 C.ar      1 <1>         0.0018
     22 H22         1.2731   -2.0706    1.8439 H         1 <1>         0.0918
     23 H23         1.1064   -1.9290    0.0774 H         1 <1>         0.0918
     24 H24         1.9358   -0.6513    0.9984 H         1 <1>         0.1280
     25 H25        -0.1704   -3.2984    0.9945 H         1 <1>         0.1154
     26 H26        -0.9296   -6.6042    0.8143 H         1 <1>         0.1293
     27 H27        -0.4151   -5.1165   -0.0164 H         1 <1>         0.0931
     28 H28        -0.2528   -5.2505    1.7510 H         1 <1>         0.0931
     29 H29        -6.9183   -3.6642    1.5891 H         1 <1>         0.1388
     30 H30        -8.4422   -2.8546    1.8018 H         1 <1>         0.1405
     31 H31       -10.5743   -1.6630    2.0892 H         1 <1>         0.1224
     32 H32       -10.6038    0.7903    2.2680 H         1 <1>         0.1271
     33 H33        -8.5037    2.0668    2.1612 H         1 <1>         0.1224
     34 H34        -6.3596    0.8953    1.8798 H         1 <1>         0.1405
     35 H35        -2.5460    0.2225    1.4914 H         1 <1>         0.1419
@<TRIPOS>BOND
     1    1    2 1
     2    1   22 1
     3    1   23 1
     4    1   24 1
     5    2    3 1
     6    3   21 ar
     7    3    4 ar
     8    4    5 ar
     9    4   25 1
    10    5    6 1
    11    5    8 ar
    12    6    7 1
    13    7   26 1
    14    7   27 1
    15    7   28 1
    16    8   20 ar
    17    8    9 1
    18    9   10 2
    19    9   11 1
    20   11   12 2
    21   11   29 1
    22   12   13 1
    23   12   19 1
    24   13   18 ar
    25   13   14 ar
    26   14   15 ar
    27   14   30 1
    28   15   16 ar
    29   15   31 1
    30   16   17 ar
    31   16   32 1
    32   17   18 ar
    33   17   33 1
    34   18   34 1
    35   19   20 1
    36   20   21 ar
    37   21   35 1
@<TRIPOS>Similarity
1.1943
@<TRIPOS>ShapeSim
0.7709
@<TRIPOS>PharmSim
0.4234
# END
# Name:		O=C1C(C(OCC)=O)=CNC2=CC(C(F)(F)F)=C(F)C([H])=C21
# Created and modified by SHAFTS on Sun Mar 21 16:57:45 2021

# 

@<TRIPOS>MOLECULE
O=C1C(C(OCC)=O)=CNC2=CC(C(F)(F)F)=C(F)C([H])=C21
   30    31     0
SMALL
USER_CHARGE


@<TRIPOS>ATOM
      1 C1          1.5378   -3.2195    0.8388 C.3       1 <1>        -0.0326
      2 C2          0.2701   -4.0746    0.8926 C.3       1 <1>         0.0260
      3 O3         -0.8870   -3.2144    1.0636 O.3       1 <1>        -0.3533
      4 C4         -2.0916   -3.8154    1.1305 C.2       1 <1>         0.1951
      5 O5         -2.1725   -5.0252    1.0481 O.2       1 <1>        -0.4380
      6 C6         -3.3092   -3.0063    1.3032 C.ar      1 <1>         0.1228
      7 C7         -3.2245   -1.6066    1.3935 C.ar      1 <1>         0.0243
      8 N8         -4.2900   -0.8638    1.5476 N.ar      1 <1>        -0.3678
      9 C9         -5.5184   -1.3934    1.6273 C.ar      1 <1>         0.0069
     10 C10        -6.6453   -0.5713    1.7922 C.ar      1 <1>        -0.0010
     11 C11        -7.8853   -1.1285    1.8709 C.ar      1 <1>         0.1035
     12 C12        -9.0887   -0.2386    2.0473 C.3       1 <1>         0.3624
     13 F13        -8.6768    1.0973    2.1019 F         1 <1>        -0.1857
     14 F14        -9.9608   -0.4140    0.9676 F         1 <1>        -0.1857
     15 F15        -9.7455   -0.5729    3.2364 F         1 <1>        -0.1857
     16 C16        -8.0590   -2.5096    1.7902 C.ar      1 <1>         0.1063
     17 F17        -9.3020   -3.0326    1.8710 F         1 <1>        -0.2491
     18 C18        -6.9870   -3.3388    1.6299 C.ar      1 <1>        -0.0071
     19 C19        -5.6967   -2.7955    1.5455 C.ar      1 <1>         0.0205
     20 C20        -4.5643   -3.6231    1.3735 C.ar      1 <1>         0.0495
     21 O21        -4.6882   -4.9669    1.2847 O.3       1 <1>        -0.3960
     22 H22         1.4732   -2.5264    0.0001 H         1 <1>         0.0514
     23 H23         1.6367   -2.6578    1.7676 H         1 <1>         0.0514
     24 H24         2.4065   -3.8652    0.7105 H         1 <1>         0.0585
     25 H25         0.1712   -4.6364   -0.0362 H         1 <1>         0.1011
     26 H26         0.3348   -4.7678    1.7313 H         1 <1>         0.1011
     27 H27        -2.2558   -1.1327    1.3346 H         1 <1>         0.2524
     28 H28        -6.5284    0.5004    1.8570 H         1 <1>         0.1908
     29 H29        -7.1313   -4.4074    1.5687 H         1 <1>         0.1612
     30 H30        -4.8093   -5.2919    0.3820 H         1 <1>         0.3867
@<TRIPOS>BOND
     1    1    2 1
     2    1   22 1
     3    1   23 1
     4    1   24 1
     5    2    3 1
     6    2   25 1
     7    2   26 1
     8    3    4 1
     9    4    5 2
    10    4    6 1
    11    6   20 ar
    12    6    7 ar
    13    7    8 ar
    14    7   27 1
    15    8    9 ar
    16    9   19 ar
    17    9   10 ar
    18   10   11 ar
    19   10   28 1
    20   11   12 1
    21   11   16 ar
    22   12   13 1
    23   12   14 1
    24   12   15 1
    25   16   17 1
    26   16   18 ar
    27   18   19 ar
    28   18   29 1
    29   19   20 ar
    30   20   21 1
    31   21   30 1
@<TRIPOS>Similarity
1.1929
@<TRIPOS>ShapeSim
0.8120
@<TRIPOS>PharmSim
0.3809
# END
# Name:		C12=NC=CC=C1C=NC=C2
# Created and modified by SHAFTS on Sun Mar 21 16:57:45 2021

# 

@<TRIPOS>MOLECULE
C12=NC=CC=C1C=NC=C2
   16    17     0
SMALL
USER_CHARGE


@<TRIPOS>ATOM
      1 C1         -6.2962   -3.6489    1.5352 C.ar      1 <1>        -0.0593
      2 C2         -5.2730   -2.7043    1.5111 C.ar      1 <1>        -0.0294
      3 N3         -5.5148   -1.4197    1.6303 N.ar      1 <1>        -0.3905
      4 C4         -6.7586   -0.9635    1.7805 C.ar      1 <1>        -0.0245
      5 C5         -7.0397    0.4098    1.9090 C.ar      1 <1>        -0.0290
      6 C6         -8.3346    0.8024    2.0583 C.ar      1 <1>        -0.0338
      7 N7         -9.3336   -0.0688    2.0863 N.ar      1 <1>        -0.3987
      8 C8         -9.1475   -1.3635    1.9724 C.ar      1 <1>        -0.0206
      9 C9         -7.8491   -1.8711    1.8137 C.ar      1 <1>        -0.0200
     10 C10        -7.5941   -3.2476    1.6863 C.ar      1 <1>        -0.0708
     11 H11        -6.0644   -4.6985    1.4300 H         1 <1>         0.1276
     12 H12        -4.2528   -3.0378    1.3912 H         1 <1>         0.2204
     13 H13        -6.2428    1.1385    1.8899 H         1 <1>         0.1509
     14 H14        -8.5547    1.8552    2.1572 H         1 <1>         0.1985
     15 H15        -9.9920   -2.0362    2.0012 H         1 <1>         0.2237
     16 H16        -8.3997   -3.9667    1.7068 H         1 <1>         0.1554
@<TRIPOS>BOND
     1    1   10 ar
     2    1    2 ar
     3    1   11 1
     4    2    3 ar
     5    2   12 1
     6    3    4 ar
     7    4    9 ar
     8    4    5 ar
     9    5    6 ar
    10    5   13 1
    11    6    7 ar
    12    6   14 1
    13    7    8 ar
    14    8    9 ar
    15    8   15 1
    16    9   10 ar
    17   10   16 1
@<TRIPOS>Similarity
1.1750
@<TRIPOS>ShapeSim
0.6292
@<TRIPOS>PharmSim
0.5459
# END
# Name:		O=C1C(C(OCC)=O)=CNC2=CC=C(Cl)C=C21
# Created and modified by SHAFTS on Sun Mar 21 16:57:45 2021

# 

@<TRIPOS>MOLECULE
O=C1C(C(OCC)=O)=CNC2=CC=C(Cl)C=C21
   27    28     0
SMALL
USER_CHARGE


@<TRIPOS>ATOM
      1 C1         -0.9451   -4.7864    0.9723 C.3       1 <1>        -0.0325
      2 C2         -2.4269   -5.1540    1.0735 C.3       1 <1>         0.0263
      3 O3         -3.2152   -3.9457    1.2375 O.3       1 <1>        -0.3526
      4 C4         -4.5504   -4.0958    1.3429 C.2       1 <1>         0.1920
      5 O5         -5.0425   -5.2063    1.2988 O.2       1 <1>        -0.4429
      6 C6         -5.4129   -2.9148    1.5114 C.ar      1 <1>         0.1189
      7 C7         -4.8522   -1.6273    1.5575 C.ar      1 <1>         0.0184
      8 N8         -5.5949   -0.5609    1.7063 N.ar      1 <1>        -0.3739
      9 C9         -6.9279   -0.6355    1.8223 C.ar      1 <1>        -0.0075
     10 C10        -7.7012    0.5263    1.9805 C.ar      1 <1>        -0.0359
     11 C11        -9.0547    0.4289    2.0964 C.ar      1 <1>        -0.0497
     12 C12        -9.6914   -0.8099    2.0607 C.ar      1 <1>        -0.0008
     13 Cl13      -11.4189   -0.8916    2.2113 Cl        1 <1>        -0.1324
     14 C14        -8.9729   -1.9590    1.9084 C.ar      1 <1>        -0.0443
     15 C15        -7.5771   -1.8932    1.7863 C.ar      1 <1>         0.0102
     16 C16        -6.8011   -3.0624    1.6216 C.ar      1 <1>         0.0441
     17 O17        -7.3794   -4.2842    1.5765 O.3       1 <1>        -0.3966
     18 H18        -0.6356   -4.2714    1.8817 H         1 <1>         0.0514
     19 H19        -0.3534   -5.6935    0.8491 H         1 <1>         0.0585
     20 H20        -0.7907   -4.1325    0.1140 H         1 <1>         0.0514
     21 H21        -2.7364   -5.6689    0.1640 H         1 <1>         0.1011
     22 H22        -2.5813   -5.8079    1.9318 H         1 <1>         0.1011
     23 H23        -3.7817   -1.5154    1.4682 H         1 <1>         0.2436
     24 H24        -7.2235    1.4944    2.0107 H         1 <1>         0.1578
     25 H25        -9.6436    1.3259    2.2182 H         1 <1>         0.1543
     26 H26        -9.4757   -2.9145    1.8823 H         1 <1>         0.1533
     27 H27        -7.6276   -4.5691    0.6864 H         1 <1>         0.3869
@<TRIPOS>BOND
     1    1    2 1
     2    1   18 1
     3    1   19 1
     4    1   20 1
     5    2    3 1
     6    2   21 1
     7    2   22 1
     8    3    4 1
     9    4    5 2
    10    4    6 1
    11    6   16 ar
    12    6    7 ar
    13    7    8 ar
    14    7   23 1
    15    8    9 ar
    16    9   15 ar
    17    9   10 ar
    18   10   11 ar
    19   10   24 1
    20   11   12 ar
    21   11   25 1
    22   12   13 1
    23   12   14 ar
    24   14   15 ar
    25   14   26 1
    26   15   16 ar
    27   16   17 1
    28   17   27 1
@<TRIPOS>Similarity
1.1750
@<TRIPOS>ShapeSim
0.7486
@<TRIPOS>PharmSim
0.4265
# END
# Name:		O=C(O)C1=C3C(C=CC=C3)=NC(C2=CC=CC(F)=C2)=C1
# Created and modified by SHAFTS on Sun Mar 21 16:57:45 2021

# 

@<TRIPOS>MOLECULE
O=C(O)C1=C3C(C=CC=C3)=NC(C2=CC=CC(F)=C2)=C1
   29    31     0
SMALL
USER_CHARGE


@<TRIPOS>ATOM
      1 O1         -8.4187   -5.4775    1.4878 O.co2     1 <1>        -0.5000
      2 C2         -8.6651   -4.2996    1.7046 C.2       1 <1>         0.5300
      3 O3         -9.8113   -3.9493    1.9474 O.co2     1 <1>        -0.5000
      4 C4         -7.5778   -3.3011    1.6789 C.ar      1 <1>        -0.0600
      5 C5         -7.8546   -1.8703    1.8128 C.ar      1 <1>        -0.0800
      6 C6         -9.1587   -1.3893    1.9703 C.ar      1 <1>        -0.0700
      7 C7         -9.3719   -0.0481    2.0919 C.ar      1 <1>        -0.1500
      8 C8         -8.3070    0.8498    2.0611 C.ar      1 <1>        -0.1000
      9 C9         -7.0262    0.4162    1.9093 C.ar      1 <1>        -0.1100
     10 C10        -6.7665   -0.9614    1.7807 C.ar      1 <1>         0.1200
     11 N11        -5.5220   -1.4160    1.6312 N.ar      1 <1>        -0.4800
     12 C12        -5.2501   -2.6978    1.5091 C.ar      1 <1>         0.1900
     13 C13        -3.8371   -3.1172    1.3468 C.ar      1 <1>        -0.0100
     14 C14        -3.5197   -4.4675    1.2096 C.ar      1 <1>        -0.1100
     15 C15        -2.2031   -4.8534    1.0587 C.ar      1 <1>        -0.0900
     16 C16        -1.1981   -3.9037    1.0438 C.ar      1 <1>        -0.1500
     17 C17        -1.5065   -2.5595    1.1797 C.ar      1 <1>         0.0900
     18 F18        -0.5205   -1.6361    1.1639 F         1 <1>        -0.1400
     19 C19        -2.8222   -2.1620    1.3251 C.ar      1 <1>        -0.1200
     20 C20        -6.2500   -3.6821    1.5327 C.ar      1 <1>        -0.1500
     21 H21        -9.9917   -2.0763    1.9952 H         1 <1>         0.1700
     22 H22       -10.3789    0.3228    2.2131 H         1 <1>         0.1200
     23 H23        -8.5013    1.9077    2.1589 H         1 <1>         0.1200
     24 H24        -6.2123    1.1258    1.8871 H         1 <1>         0.1300
     25 H25        -4.3030   -5.2109    1.2217 H         1 <1>         0.1400
     26 H26        -1.9571   -5.8996    0.9523 H         1 <1>         0.1400
     27 H27        -0.1693   -4.2105    0.9262 H         1 <1>         0.1300
     28 H28        -3.0626   -1.1143    1.4306 H         1 <1>         0.1500
     29 H29        -5.9905   -4.7254    1.4300 H         1 <1>         0.1500
@<TRIPOS>BOND
     1    1    2 ar
     2    2    3 ar
     3    2    4 1
     4    4   20 ar
     5    4    5 ar
     6    5   10 ar
     7    5    6 ar
     8    6    7 ar
     9    6   21 1
    10    7    8 ar
    11    7   22 1
    12    8    9 ar
    13    8   23 1
    14    9   10 ar
    15    9   24 1
    16   10   11 ar
    17   11   12 ar
    18   12   13 1
    19   12   20 ar
    20   13   19 ar
    21   13   14 ar
    22   14   15 ar
    23   14   25 1
    24   15   16 ar
    25   15   26 1
    26   16   17 ar
    27   16   27 1
    28   17   18 1
    29   17   19 ar
    30   19   28 1
    31   20   29 1
@<TRIPOS>Similarity
1.1744
@<TRIPOS>ShapeSim
0.7347
@<TRIPOS>PharmSim
0.4398
# END
# Name:		O=C1C(C(OCC)=O)=CNC2=CC([H])=C(Br)C([H])=C21
# Created and modified by SHAFTS on Sun Mar 21 16:57:45 2021

# 

@<TRIPOS>MOLECULE
O=C1C(C(OCC)=O)=CNC2=CC([H])=C(Br)C([H])=C21
   27    28     0
SMALL
USER_CHARGE


@<TRIPOS>ATOM
      1 C1         -0.9452   -4.7865    0.9718 C.3       1 <1>        -0.0325
      2 C2         -2.4270   -5.1540    1.0732 C.3       1 <1>         0.0263
      3 O3         -3.2153   -3.9457    1.2373 O.3       1 <1>        -0.3526
      4 C4         -4.5505   -4.0958    1.3429 C.2       1 <1>         0.1920
      5 O5         -5.0425   -5.2063    1.2988 O.2       1 <1>        -0.4429
      6 C6         -5.4129   -2.9148    1.5115 C.ar      1 <1>         0.1189
      7 C7         -4.8523   -1.6273    1.5575 C.ar      1 <1>         0.0184
      8 N8         -5.5950   -0.5609    1.7059 N.ar      1 <1>        -0.3738
      9 C9         -6.9279   -0.6355    1.8221 C.ar      1 <1>        -0.0064
     10 C10        -7.7012    0.5263    1.9800 C.ar      1 <1>        -0.0366
     11 C11        -9.0547    0.4288    2.0959 C.ar      1 <1>        -0.0592
     12 C12        -9.6912   -0.8099    2.0612 C.ar      1 <1>        -0.0266
     13 Br13      -11.5729   -0.8990    2.2266 Br        1 <1>        -0.1006
     14 C14        -8.9729   -1.9589    1.9089 C.ar      1 <1>        -0.0498
     15 C15        -7.5771   -1.8931    1.7866 C.ar      1 <1>         0.0126
     16 C16        -6.8011   -3.0624    1.6218 C.ar      1 <1>         0.0450
     17 O17        -7.3795   -4.2841    1.5771 O.3       1 <1>        -0.3965
     18 H18        -0.6356   -4.2715    1.8813 H         1 <1>         0.0514
     19 H19        -0.3536   -5.6936    0.8485 H         1 <1>         0.0585
     20 H20        -0.7910   -4.1326    0.1135 H         1 <1>         0.0514
     21 H21        -2.7367   -5.6690    0.1637 H         1 <1>         0.1011
     22 H22        -2.5813   -5.8079    1.9315 H         1 <1>         0.1011
     23 H23        -3.7818   -1.5155    1.4685 H         1 <1>         0.2436
     24 H24        -7.2237    1.4946    2.0097 H         1 <1>         0.1580
     25 H25        -9.6439    1.3259    2.2171 H         1 <1>         0.1540
     26 H26        -9.4758   -2.9142    1.8825 H         1 <1>         0.1581
     27 H27        -7.6280   -4.5693    0.6871 H         1 <1>         0.3869
@<TRIPOS>BOND
     1    1    2 1
     2    1   18 1
     3    1   19 1
     4    1   20 1
     5    2    3 1
     6    2   21 1
     7    2   22 1
     8    3    4 1
     9    4    5 2
    10    4    6 1
    11    6   16 ar
    12    6    7 ar
    13    7    8 ar
    14    7   23 1
    15    8    9 ar
    16    9   15 ar
    17    9   10 ar
    18   10   11 ar
    19   10   24 1
    20   11   12 ar
    21   11   25 1
    22   12   13 1
    23   12   14 ar
    24   14   15 ar
    25   14   26 1
    26   15   16 ar
    27   16   17 1
    28   17   27 1
@<TRIPOS>Similarity
1.1733
@<TRIPOS>ShapeSim
0.7468
@<TRIPOS>PharmSim
0.4265
# END
# Name:		O=C1C(C(OCC)=O)=CNC2=CC([H])=C(I)C([H])=C21
# Created and modified by SHAFTS on Sun Mar 21 16:57:45 2021

# 

@<TRIPOS>MOLECULE
O=C1C(C(OCC)=O)=CNC2=CC([H])=C(I)C([H])=C21
   27    28     0
SMALL
USER_CHARGE


@<TRIPOS>ATOM
      1 C1         -0.9449   -4.7866    0.9743 C.3       1 <1>        -0.0325
      2 C2         -2.4268   -5.1541    1.0747 C.3       1 <1>         0.0263
      3 O3         -3.2151   -3.9457    1.2384 O.3       1 <1>        -0.3526
      4 C4         -4.5504   -4.0958    1.3432 C.2       1 <1>         0.1924
      5 O5         -5.0425   -5.2063    1.2988 O.2       1 <1>        -0.4429
      6 C6         -5.4129   -2.9148    1.5113 C.ar      1 <1>         0.1203
      7 C7         -4.8522   -1.6274    1.5577 C.ar      1 <1>         0.0211
      8 N8         -5.5950   -0.5609    1.7067 N.ar      1 <1>        -0.3707
      9 C9         -6.9279   -0.6355    1.8226 C.ar      1 <1>        -0.0048
     10 C10        -7.7011    0.5262    1.9810 C.ar      1 <1>        -0.0359
     11 C11        -9.0547    0.4285    2.0966 C.ar      1 <1>        -0.0622
     12 C12        -9.6911   -0.8101    2.0606 C.ar      1 <1>        -0.0299
     13 I13       -11.7758   -0.9087    2.2427 I         1 <1>        -0.0900
     14 C14        -8.9730   -1.9587    1.9077 C.ar      1 <1>        -0.0506
     15 C15        -7.5772   -1.8931    1.7862 C.ar      1 <1>         0.0131
     16 C16        -6.8011   -3.0623    1.6209 C.ar      1 <1>         0.0445
     17 O17        -7.3796   -4.2839    1.5739 O.3       1 <1>        -0.3968
     18 H18        -0.6358   -4.2716    1.8839 H         1 <1>         0.0514
     19 H19        -0.3533   -5.6937    0.8513 H         1 <1>         0.0585
     20 H20        -0.7901   -4.1327    0.1161 H         1 <1>         0.0514
     21 H21        -2.7359   -5.6690    0.1651 H         1 <1>         0.1011
     22 H22        -2.5816   -5.8080    1.9329 H         1 <1>         0.1011
     23 H23        -3.7817   -1.5154    1.4687 H         1 <1>         0.2464
     24 H24        -7.2237    1.4945    2.0114 H         1 <1>         0.1584
     25 H25        -9.6439    1.3253    2.2186 H         1 <1>         0.1460
     26 H26        -9.4760   -2.9140    1.8810 H         1 <1>         0.1598
     27 H27        -7.6273   -4.5678    0.6833 H         1 <1>         0.3869
@<TRIPOS>BOND
     1    1    2 1
     2    1   18 1
     3    1   19 1
     4    1   20 1
     5    2    3 1
     6    2   21 1
     7    2   22 1
     8    3    4 1
     9    4    5 2
    10    4    6 1
    11    6   16 ar
    12    6    7 ar
    13    7    8 ar
    14    7   23 1
    15    8    9 ar
    16    9   15 ar
    17    9   10 ar
    18   10   11 ar
    19   10   24 1
    20   11   12 ar
    21   11   25 1
    22   12   13 1
    23   12   14 ar
    24   14   15 ar
    25   14   26 1
    26   15   16 ar
    27   16   17 1
    28   17   27 1
@<TRIPOS>Similarity
1.1707
@<TRIPOS>ShapeSim
0.7442
@<TRIPOS>PharmSim
0.4265
# END
# Name:		O=C1CCC2=C3C=CC=CC3=CC=C2O1
# Created and modified by SHAFTS on Sun Mar 21 16:57:45 2021

# 

@<TRIPOS>MOLECULE
O=C1CCC2=C3C=CC=CC3=CC=C2O1
   25    27     0
SMALL
USER_CHARGE


@<TRIPOS>ATOM
      1 O1         -2.4623   -4.4338    1.1196 O.2       1 <1>        -0.4147
      2 C2         -3.3584   -3.9475    1.7681 C.2       1 <1>         0.1820
      3 C3         -3.1208   -2.7695    2.6926 C.3       1 <1>         0.0704
      4 C4         -4.0507   -1.6400    2.2384 C.3       1 <1>        -0.0127
      5 C5         -5.4196   -2.1945    1.9346 C.ar      1 <1>        -0.0613
      6 C6         -6.5115   -1.3040    1.9183 C.ar      1 <1>        -0.0779
      7 C7         -6.3306    0.0641    2.1884 C.ar      1 <1>        -0.0893
      8 C8         -7.4031    0.9015    2.1659 C.ar      1 <1>        -0.0992
      9 C9         -8.6808    0.4244    1.8785 C.ar      1 <1>        -0.0985
     10 C10        -8.8933   -0.8934    1.6120 C.ar      1 <1>        -0.0887
     11 C11        -7.8096   -1.7880    1.6261 C.ar      1 <1>        -0.0743
     12 C12        -7.9879   -3.1552    1.3548 C.ar      1 <1>        -0.0730
     13 C13        -6.9171   -3.9891    1.3839 C.ar      1 <1>        -0.0441
     14 C14        -5.6277   -3.5157    1.6765 C.ar      1 <1>         0.0264
     15 O15        -4.6160   -4.4223    1.6999 O.3       1 <1>        -0.3012
     16 H16        -3.3535   -3.0511    3.7195 H         1 <1>         0.1032
     17 H17        -2.0823   -2.4460    2.6218 H         1 <1>         0.1104
     18 H18        -4.1292   -0.8951    3.0302 H         1 <1>         0.0827
     19 H19        -3.6421   -1.1727    1.3424 H         1 <1>         0.0756
     20 H20        -5.3463    0.4480    2.4128 H         1 <1>         0.1244
     21 H21        -7.2620    1.9519    2.3737 H         1 <1>         0.1247
     22 H22        -9.5147    1.1105    1.8676 H         1 <1>         0.1215
     23 H23        -9.8886   -1.2493    1.3906 H         1 <1>         0.1295
     24 H24        -8.9703   -3.5401    1.1245 H         1 <1>         0.1430
     25 H25        -7.0597   -5.0393    1.1762 H         1 <1>         0.1412
@<TRIPOS>BOND
     1    1    2 2
     2    2   15 1
     3    2    3 1
     4    3    4 1
     5    3   16 1
     6    3   17 1
     7    4    5 1
     8    4   18 1
     9    4   19 1
    10    5   14 ar
    11    5    6 ar
    12    6   11 ar
    13    6    7 ar
    14    7    8 ar
    15    7   20 1
    16    8    9 ar
    17    8   21 1
    18    9   10 ar
    19    9   22 1
    20   10   11 ar
    21   10   23 1
    22   11   12 ar
    23   12   13 ar
    24   12   24 1
    25   13   14 ar
    26   13   25 1
    27   14   15 1
@<TRIPOS>Similarity
1.1703
@<TRIPOS>ShapeSim
0.6806
@<TRIPOS>PharmSim
0.4897
# END
# Name:		C1=CC(=CN=C1)CNC(=O)C2=CC=C(O2)[N+](=O)[O-]
# Created and modified by SHAFTS on Sun Mar 21 16:57:45 2021

# 

@<TRIPOS>MOLECULE
C1=CC(=CN=C1)CNC(=O)C2=CC=C(O2)[N+](=O)[O-]
   27    28     0
SMALL
USER_CHARGE


@<TRIPOS>ATOM
      1 O1         -4.9366   -5.0522    1.3011 O.2       1 <1>        -0.4396
      2 C2         -4.6541   -3.8701    1.3645 C.2       1 <1>         0.1668
      3 N3         -3.3680   -3.4785    1.2693 N.am      1 <1>        -0.3209
      4 C4         -2.3100   -4.4758    1.0895 C.3       1 <1>         0.0016
      5 C5         -0.9741   -3.7826    1.0127 C.ar      1 <1>        -0.0547
      6 C6         -0.4701   -3.3635   -0.2088 C.ar      1 <1>        -0.0828
      7 C7          0.7630   -2.7294   -0.2315 C.ar      1 <1>        -0.0679
      8 C8          1.4435   -2.5379    0.9558 C.ar      1 <1>        -0.0412
      9 N9          0.9333   -2.9501    2.1000 N.ar      1 <1>        -0.4005
     10 C10        -0.2385   -3.5516    2.1599 C.ar      1 <1>        -0.0343
     11 C11        -5.7138   -2.8713    1.5384 C.2       1 <1>         0.1514
     12 C12        -7.0501   -3.1300    1.6481 C.2       1 <1>        -0.0119
     13 C13        -7.6901   -1.8900    1.7990 C.2       1 <1>        -0.0070
     14 C14        -6.7287   -0.9407    1.7751 C.2       1 <1>         0.1912
     15 N15        -6.9531    0.5169    1.9026 N.pl3     1 <1>         0.0647
     16 O16        -8.0831    0.9492    2.0429 O.2       1 <1>        -0.1946
     17 O17        -6.0077    1.2840    1.8669 O.2       1 <1>        -0.2000
     18 O18        -5.5388   -1.5363    1.6237 O.3       1 <1>        -0.3036
     19 H19        -3.1430   -2.5363    1.3198 H         1 <1>         0.3121
     20 H20        -2.3136   -5.1654    1.9337 H         1 <1>         0.1264
     21 H21        -2.4856   -5.0296    0.1673 H         1 <1>         0.1264
     22 H22        -1.0245   -3.5270   -1.1211 H         1 <1>         0.1425
     23 H23         1.1862   -2.3900   -1.1653 H         1 <1>         0.1274
     24 H24         2.4046   -2.0454    0.9466 H         1 <1>         0.2022
     25 H25        -0.6241   -3.8753    3.1154 H         1 <1>         0.2054
     26 H26        -7.5230   -4.1006    1.6233 H         1 <1>         0.1767
     27 H27        -8.7514   -1.7254    1.9126 H         1 <1>         0.1842
@<TRIPOS>BOND
     1    1    2 2
     2    2    3 am
     3    2   11 1
     4    3    4 1
     5    3   19 1
     6    4    5 1
     7    4   20 1
     8    4   21 1
     9    5   10 ar
    10    5    6 ar
    11    6    7 ar
    12    6   22 1
    13    7    8 ar
    14    7   23 1
    15    8    9 ar
    16    8   24 1
    17    9   10 ar
    18   10   25 1
    19   11   18 1
    20   11   12 2
    21   12   13 1
    22   12   26 1
    23   13   14 2
    24   13   27 1
    25   14   15 1
    26   14   18 1
    27   15   16 2
    28   15   17 2
@<TRIPOS>Similarity
1.1701
@<TRIPOS>ShapeSim
0.7931
@<TRIPOS>PharmSim
0.3770
# END
# Name:		CC1=CC(=CC(=C1O)C)C2=NNC(=O)C(=C2)C3=NC4=C(N3)C=C(C=C4)CN5CCN(CC5)C
# Created and modified by SHAFTS on Sun Mar 21 16:57:45 2021

# 

@<TRIPOS>MOLECULE
CC1=CC(=CC(=C1O)C)C2=NNC(=O)C(=C2)C3=NC4=C(N3)C=C(C=C4)CN5CCN(CC5)C
   62    66     0
SMALL
USER_CHARGE


@<TRIPOS>ATOM
      1 C1          2.9634   -4.2657    0.4805 C.3       1 <1>        -0.0342
      2 C2          1.7718   -3.3612    0.6627 C.ar      1 <1>        -0.0695
      3 C3          0.5091   -3.9017    0.7850 C.ar      1 <1>        -0.0636
      4 C4         -0.5924   -3.0645    0.9538 C.ar      1 <1>        -0.0240
      5 C5         -1.9521   -3.6428    1.0862 C.2       1 <1>         0.0489
      6 N6         -2.1071   -4.9443    1.0484 N.2       1 <1>        -0.2850
      7 N7         -3.2452   -5.5245    1.1554 N.am      1 <1>        -0.2158
      8 C8         -4.3875   -4.8280    1.3172 C.2       1 <1>         0.1590
      9 O9         -5.4579   -5.4036    1.4166 O.2       1 <1>        -0.4777
     10 C10        -4.3177   -3.3624    1.3719 C.2       1 <1>         0.1161
     11 C11        -5.5299   -2.5390    1.5477 C.2       1 <1>         0.0462
     12 N12        -5.5509   -1.2286    1.6006 N.2       1 <1>        -0.3618
     13 C13        -6.8252   -0.8001    1.7680 C.ar      1 <1>        -0.0151
     14 C14        -7.4050    0.4673    1.8854 C.ar      1 <1>        -0.0555
     15 C15        -8.7561    0.5853    2.0500 C.ar      1 <1>        -0.1075
     16 C16        -9.3754    1.9535    2.1755 C.3       1 <1>        -0.1569
     17 N17        -9.7396    2.4503    0.8419 N.3       1 <1>         0.3365
     18 C18        -8.6432    2.2432   -0.1147 C.3       1 <1>        -0.1865
     19 C19        -9.0835    2.7182   -1.5012 C.3       1 <1>        -0.1133
     20 N20        -9.4411    4.1416   -1.4405 N.4       1 <1>         0.4077
     21 H21        -8.6437    4.6756   -1.1289 H         1 <1>         0.1593
     22 C22        -9.8468    4.6016   -2.7754 C.3       1 <1>        -0.0914
     23 C23       -10.5534    4.3291   -0.4997 C.3       1 <1>        -0.1121
     24 C24       -10.1253    3.8675    0.8950 C.3       1 <1>        -0.1878
     25 C25        -9.5639   -0.5415    2.1025 C.ar      1 <1>        -0.0828
     26 C26        -9.0147   -1.8018    1.9895 C.ar      1 <1>        -0.0636
     27 C27        -7.6445   -1.9425    1.8212 C.ar      1 <1>        -0.0306
     28 N28        -6.8031   -3.0280    1.6743 N.pl3     1 <1>        -0.3199
     29 C29        -3.0585   -2.7850    1.2566 C.2       1 <1>         0.0264
     30 C30        -0.4138   -1.6828    0.9986 C.ar      1 <1>        -0.0691
     31 C31         0.8513   -1.1481    0.8758 C.ar      1 <1>        -0.0716
     32 C32         1.0452    0.3455    0.9242 C.3       1 <1>        -0.0336
     33 C33         1.9472   -1.9848    0.7130 C.ar      1 <1>        -0.0313
     34 O34         3.1925   -1.4552    0.5922 O.3       1 <1>        -0.4327
     35 H35         3.3671   -4.5359    1.4563 H         1 <1>         0.0554
     36 H36         2.6571   -5.1682   -0.0484 H         1 <1>         0.0554
     37 H37         3.7280   -3.7473   -0.0981 H         1 <1>         0.0625
     38 H38         0.3737   -4.9726    0.7495 H         1 <1>         0.1453
     39 H39        -3.2853   -6.4929    1.1186 H         1 <1>         0.4168
     40 H40        -6.7856    1.3512    1.8463 H         1 <1>         0.1436
     41 H41       -10.2688    1.8923    2.7969 H         1 <1>         0.0829
     42 H42        -8.6597    2.6356    2.6344 H         1 <1>         0.0542
     43 H43        -7.7699    2.8121    0.2042 H         1 <1>         0.0354
     44 H44        -8.3920    1.1834   -0.1563 H         1 <1>         0.0856
     45 H45        -8.2667    2.5787   -2.2094 H         1 <1>         0.0934
     46 H46        -9.9485    2.1398   -1.8257 H         1 <1>         0.1005
     47 H47       -10.7079    4.0245   -3.1124 H         1 <1>         0.0764
     48 H48       -10.1122    5.6579   -2.7306 H         1 <1>         0.0764
     49 H49        -9.0212    4.4637   -3.4737 H         1 <1>         0.0764
     50 H50       -10.8263    5.3838   -0.4654 H         1 <1>         0.1008
     51 H51       -11.4108    3.7424   -0.8293 H         1 <1>         0.1008
     52 H52       -10.9555    3.9926    1.5903 H         1 <1>         0.0781
     53 H53        -9.2763    4.4631    1.2306 H         1 <1>         0.0351
     54 H54       -10.6303   -0.4310    2.2331 H         1 <1>         0.1394
     55 H55        -9.6484   -2.6753    2.0317 H         1 <1>         0.1343
     56 H56        -7.0647   -3.9620    1.6644 H         1 <1>         0.3579
     57 H57        -2.9325   -1.7128    1.2883 H         1 <1>         0.1971
     58 H58        -1.2656   -1.0317    1.1291 H         1 <1>         0.1326
     59 H59         1.2114    0.6572    1.9554 H         1 <1>         0.0575
     60 H60         1.9087    0.6197    0.3181 H         1 <1>         0.0647
     61 H61         0.1558    0.8402    0.5340 H         1 <1>         0.0575
     62 H62         3.6542   -1.3400    1.4340 H         1 <1>         0.3572
@<TRIPOS>BOND
     1    1    2 1
     2    1   35 1
     3    1   36 1
     4    1   37 1
     5    2   33 ar
     6    2    3 ar
     7    3    4 ar
     8    3   38 1
     9    4    5 1
    10    4   30 ar
    11    5   29 1
    12    5    6 2
    13    6    7 1
    14    7    8 am
    15    7   39 1
    16    8    9 2
    17    8   10 1
    18   10   11 1
    19   10   29 2
    20   11   28 1
    21   11   12 2
    22   12   13 1
    23   13   27 ar
    24   13   14 ar
    25   14   15 ar
    26   14   40 1
    27   15   16 1
    28   15   25 ar
    29   16   17 1
    30   16   41 1
    31   16   42 1
    32   17   24 1
    33   17   18 1
    34   18   19 1
    35   18   43 1
    36   18   44 1
    37   19   20 1
    38   19   45 1
    39   19   46 1
    40   20   21 1
    41   20   22 1
    42   20   23 1
    43   22   47 1
    44   22   48 1
    45   22   49 1
    46   23   24 1
    47   23   50 1
    48   23   51 1
    49   24   52 1
    50   24   53 1
    51   25   26 ar
    52   25   54 1
    53   26   27 ar
    54   26   55 1
    55   27   28 1
    56   28   56 1
    57   29   57 1
    58   30   31 ar
    59   30   58 1
    60   31   32 1
    61   31   33 ar
    62   32   59 1
    63   32   60 1
    64   32   61 1
    65   33   34 1
    66   34   62 1
@<TRIPOS>Similarity
1.1676
@<TRIPOS>ShapeSim
0.8037
@<TRIPOS>PharmSim
0.3639
# END
# Name:		CCOC(=O)C1=CNC2=C(C1=O)C=C(C=C2)OC
# Created and modified by SHAFTS on Sun Mar 21 16:57:45 2021

# 

@<TRIPOS>MOLECULE
CCOC(=O)C1=CNC2=C(C1=O)C=C(C=C2)OC
   31    32     0
SMALL
USER_CHARGE


@<TRIPOS>ATOM
      1 C1         -0.9442   -4.7857    0.9727 C.3       1 <1>        -0.0325
      2 C2         -2.4259   -5.1538    1.0736 C.3       1 <1>         0.0264
      3 O3         -3.2146   -3.9458    1.2377 O.3       1 <1>        -0.3524
      4 C4         -4.5498   -4.0964    1.3429 C.2       1 <1>         0.1921
      5 O5         -5.0415   -5.2070    1.2987 O.2       1 <1>        -0.4426
      6 C6         -5.4127   -2.9157    1.5113 C.ar      1 <1>         0.1162
      7 C7         -4.8525   -1.6278    1.5577 C.ar      1 <1>         0.0151
      8 N8         -5.5956   -0.5619    1.7063 N.ar      1 <1>        -0.3774
      9 C9         -6.9291   -0.6366    1.8223 C.ar      1 <1>        -0.0099
     10 C10        -7.6999    0.5268    1.9805 C.ar      1 <1>        -0.0425
     11 C11        -9.0529    0.4372    2.0972 C.ar      1 <1>        -0.0461
     12 C12        -9.6974   -0.8018    2.0621 C.ar      1 <1>        -0.0010
     13 O13       -11.0501   -0.8618    2.1805 O.3       1 <1>        -0.4151
     14 C14       -11.7433    0.3778    2.3374 C.3       1 <1>         0.0258
     15 C15        -8.9728   -1.9627    1.9079 C.ar      1 <1>        -0.0299
     16 C16        -7.5773   -1.8946    1.7860 C.ar      1 <1>         0.0095
     17 C17        -6.8006   -3.0638    1.6214 C.ar      1 <1>         0.0434
     18 O18        -7.3786   -4.2858    1.5760 O.3       1 <1>        -0.3982
     19 H19        -0.7900   -4.1317    0.1144 H         1 <1>         0.0514
     20 H20        -0.6351   -4.2707    1.8822 H         1 <1>         0.0514
     21 H21        -0.3522   -5.6926    0.8495 H         1 <1>         0.0585
     22 H22        -2.7351   -5.6688    0.1640 H         1 <1>         0.1011
     23 H23        -2.5802   -5.8079    1.9318 H         1 <1>         0.1011
     24 H24        -3.7821   -1.5154    1.4685 H         1 <1>         0.2388
     25 H25        -7.2186    1.4933    2.0098 H         1 <1>         0.1604
     26 H26        -9.6371    1.3374    2.2191 H         1 <1>         0.1321
     27 H27       -12.8134    0.1878    2.4204 H         1 <1>         0.1271
     28 H28       -11.3922    0.8788    3.2395 H         1 <1>         0.0909
     29 H29       -11.5530    1.0125    1.4719 H         1 <1>         0.0909
     30 H30        -9.4755   -2.9183    1.8809 H         1 <1>         0.1492
     31 H31        -7.6266   -4.5708    0.6859 H         1 <1>         0.3863
@<TRIPOS>BOND
     1    1    2 1
     2    1   19 1
     3    1   20 1
     4    1   21 1
     5    2    3 1
     6    2   22 1
     7    2   23 1
     8    3    4 1
     9    4    5 2
    10    4    6 1
    11    6   17 ar
    12    6    7 ar
    13    7    8 ar
    14    7   24 1
    15    8    9 ar
    16    9   16 ar
    17    9   10 ar
    18   10   11 ar
    19   10   25 1
    20   11   12 ar
    21   11   26 1
    22   12   13 1
    23   12   15 ar
    24   13   14 1
    25   14   27 1
    26   14   28 1
    27   14   29 1
    28   15   16 ar
    29   15   30 1
    30   16   17 ar
    31   17   18 1
    32   18   31 1
@<TRIPOS>Similarity
1.1669
@<TRIPOS>ShapeSim
0.7370
@<TRIPOS>PharmSim
0.4299
# END
# Name:		CCOC(=O)C1=CNC2=CC=CC=C2C1=O
# Created and modified by SHAFTS on Sun Mar 21 16:57:45 2021

# 

@<TRIPOS>MOLECULE
CCOC(=O)C1=CNC2=CC=CC=C2C1=O
   26    27     0
SMALL
USER_CHARGE


@<TRIPOS>ATOM
      1 C1         -0.8887   -3.5951    1.0299 C.3       1 <1>        -0.0371
      2 C2         -2.1693   -4.4304    1.0873 C.3       1 <1>         0.0241
      3 O3         -3.3125   -3.5523    1.2612 O.3       1 <1>        -0.3577
      4 C4         -4.5264   -4.1344    1.3314 C.2       1 <1>         0.1433
      5 O5         -4.6263   -5.3433    1.2496 O.2       1 <1>        -0.4979
      6 C6         -5.7288   -3.3078    1.5070 C.2       1 <1>         0.0869
      7 C7         -6.9768   -3.8923    1.5861 C.2       1 <1>        -0.0435
      8 N8         -8.0937   -3.1712    1.7462 N.pl3     1 <1>        -0.4094
      9 C9         -8.0876   -1.7964    1.8444 C.ar      1 <1>        -0.0581
     10 C10        -9.2781   -1.0940    2.0110 C.ar      1 <1>        -0.0725
     11 C11        -9.2588    0.2802    2.1083 C.ar      1 <1>        -0.1085
     12 C12        -8.0619    0.9787    2.0416 C.ar      1 <1>        -0.1144
     13 C13        -6.8719    0.3043    1.8772 C.ar      1 <1>        -0.0885
     14 C14        -6.8765   -1.0866    1.7778 C.ar      1 <1>         0.0045
     15 C15        -5.6221   -1.8433    1.6075 C.2       1 <1>         0.0642
     16 O16        -4.5434   -1.2796    1.5484 O.2       1 <1>        -0.5136
     17 H17        -0.9447   -2.9012    0.1911 H         1 <1>         0.0432
     18 H18        -0.7785   -3.0347    1.9583 H         1 <1>         0.0432
     19 H19        -0.0305   -4.2543    0.8994 H         1 <1>         0.0504
     20 H20        -2.2794   -4.9908    0.1589 H         1 <1>         0.0938
     21 H21        -2.1132   -5.1243    1.9260 H         1 <1>         0.0938
     22 H22        -7.0551   -4.9672    1.5160 H         1 <1>         0.2095
     23 H23       -10.2165   -1.6261    2.0635 H         1 <1>         0.1181
     24 H24       -10.1855    0.8196    2.2373 H         1 <1>         0.1086
     25 H25        -8.0631    2.0560    2.1188 H         1 <1>         0.0905
     26 H26        -5.9411    0.8496    1.8257 H         1 <1>         0.1272
@<TRIPOS>BOND
     1    1    2 1
     2    1   17 1
     3    1   18 1
     4    1   19 1
     5    2    3 1
     6    2   20 1
     7    2   21 1
     8    3    4 1
     9    4    5 2
    10    4    6 1
    11    6   15 1
    12    6    7 2
    13    7    8 1
    14    7   22 1
    15    8    9 1
    16    9   14 ar
    17    9   10 ar
    18   10   11 ar
    19   10   23 1
    20   11   12 ar
    21   11   24 1
    22   12   13 ar
    23   12   25 1
    24   13   14 ar
    25   13   26 1
    26   14   15 1
    27   15   16 2
@<TRIPOS>Similarity
1.1659
@<TRIPOS>ShapeSim
0.7777
@<TRIPOS>PharmSim
0.3883
# END
# Name:		O=C(C1=CC=C(Cl)C(Cl)=C1)NC2=NNC3=C2C=CC=C3
# Created and modified by SHAFTS on Sun Mar 21 16:57:45 2021

# 

@<TRIPOS>MOLECULE
O=C(C1=CC=C(Cl)C(Cl)=C1)NC2=NNC3=C2C=CC=C3
   29    31     0
SMALL
USER_CHARGE


@<TRIPOS>ATOM
      1 O1         -2.2074   -5.0964    1.0459 O.2       1 <1>        -0.4383
      2 C2         -1.9631   -3.9080    1.1255 C.2       1 <1>         0.1458
      3 N3         -2.9665   -3.0233    1.2897 N.am      1 <1>        -0.2563
      4 C4         -4.2887   -3.4722    1.3686 C.2       1 <1>         0.0577
      5 N5         -4.6863   -4.7152    1.3037 N.2       1 <1>        -0.2987
      6 N6         -6.0785   -4.7797    1.4200 N.pl3     1 <1>        -0.3034
      7 C7         -6.5780   -3.5116    1.5651 C.ar      1 <1>        -0.0297
      8 C8         -7.8614   -2.9931    1.7185 C.ar      1 <1>        -0.0638
      9 C9         -8.0396   -1.6442    1.8420 C.ar      1 <1>        -0.0917
     10 C10        -6.9540   -0.7779    1.8167 C.ar      1 <1>        -0.0961
     11 C11        -5.6846   -1.2584    1.6676 C.ar      1 <1>        -0.0776
     12 C12        -5.4762   -2.6350    1.5451 C.ar      1 <1>         0.0034
     13 C13        -0.5657   -3.4342    1.0483 C.ar      1 <1>         0.0427
     14 C14        -0.2818   -2.0707    1.1450 C.ar      1 <1>        -0.0550
     15 C15         1.0245   -1.6339    1.0722 C.ar      1 <1>        -0.0543
     16 C16         2.0539   -2.5444    0.9035 C.ar      1 <1>         0.0258
     17 Cl17        3.6953   -1.9865    0.8128 Cl        1 <1>        -0.1108
     18 C18         1.7789   -3.8998    0.8071 C.ar      1 <1>         0.0315
     19 Cl19        3.0759   -5.0344    0.5967 Cl        1 <1>        -0.1144
     20 C20         0.4765   -4.3490    0.8838 C.ar      1 <1>        -0.0235
     21 H21        -2.7716   -2.0752    1.3532 H         1 <1>         0.3488
     22 H22        -6.6068   -5.5930    1.4009 H         1 <1>         0.3825
     23 H23        -8.7140   -3.6559    1.7394 H         1 <1>         0.1279
     24 H24        -9.0368   -1.2464    1.9604 H         1 <1>         0.1330
     25 H25        -7.1154    0.2853    1.9156 H         1 <1>         0.1148
     26 H26        -4.8456   -0.5786    1.6485 H         1 <1>         0.1378
     27 H27        -1.0836   -1.3592    1.2764 H         1 <1>         0.1437
     28 H28         1.2448   -0.5792    1.1468 H         1 <1>         0.1480
     29 H29         0.2628   -5.4049    0.8087 H         1 <1>         0.1702
@<TRIPOS>BOND
     1    1    2 2
     2    2    3 am
     3    2   13 1
     4    3    4 1
     5    3   21 1
     6    4   12 1
     7    4    5 2
     8    5    6 1
     9    6    7 1
    10    6   22 1
    11    7   12 ar
    12    7    8 ar
    13    8    9 ar
    14    8   23 1
    15    9   10 ar
    16    9   24 1
    17   10   11 ar
    18   10   25 1
    19   11   12 ar
    20   11   26 1
    21   13   20 ar
    22   13   14 ar
    23   14   15 ar
    24   14   27 1
    25   15   16 ar
    26   15   28 1
    27   16   17 1
    28   16   18 ar
    29   18   19 1
    30   18   20 ar
    31   20   29 1
@<TRIPOS>Similarity
1.1644
@<TRIPOS>ShapeSim
0.8577
@<TRIPOS>PharmSim
0.3067
# END
# Name:		O=C(O)C1=CC=C(NC2=NC(C3=CC=C4C=CC=CC4=C3)=CS2)C=C1O
# Created and modified by SHAFTS on Sun Mar 21 16:57:45 2021

# 

@<TRIPOS>MOLECULE
O=C(O)C1=CC=C(NC2=NC(C3=CC=C4C=CC=CC4=C3)=CS2)C=C1O
   39    42     0
SMALL
USER_CHARGE


@<TRIPOS>ATOM
      1 O1          4.9611   -5.0869    0.3031 O.co2     1 <1>        -0.5000
      2 C2          4.0282   -5.4682    0.9976 C.2       1 <1>         0.5200
      3 O3          4.1380   -6.4898    1.6627 O.co2     1 <1>        -0.5000
      4 C4          2.7798   -4.6970    1.0377 C.ar      1 <1>        -0.1700
      5 C5          2.6511   -3.5274    0.2777 C.ar      1 <1>        -0.0400
      6 C6          1.4906   -2.8117    0.3152 C.ar      1 <1>        -0.1600
      7 C7          0.4253   -3.2369    1.1081 C.ar      1 <1>         0.1500
      8 N8         -0.7531   -2.4993    1.1380 N.pl3     1 <1>        -0.6200
      9 C9         -1.9767   -3.1495    1.1921 C.2       1 <1>         0.3400
     10 N10        -3.1276   -2.5699    1.3405 N.2       1 <1>        -0.5400
     11 C11        -4.1968   -3.3543    1.3700 C.2       1 <1>         0.1400
     12 C12        -5.5691   -2.8176    1.5338 C.ar      1 <1>        -0.0200
     13 C13        -6.6625   -3.6984    1.5630 C.ar      1 <1>        -0.1000
     14 C14        -7.9293   -3.2320    1.7120 C.ar      1 <1>        -0.1100
     15 C15        -8.1592   -1.8506    1.8402 C.ar      1 <1>        -0.0500
     16 C16        -9.4602   -1.3432    1.9960 C.ar      1 <1>        -0.1100
     17 C17        -9.6507   -0.0010    2.1181 C.ar      1 <1>        -0.1200
     18 C18        -8.5733    0.8827    2.0909 C.ar      1 <1>        -0.1200
     19 C19        -7.2991    0.4287    1.9417 C.ar      1 <1>        -0.1000
     20 C20        -7.0628   -0.9517    1.8126 C.ar      1 <1>        -0.0500
     21 C21        -5.7613   -1.4539    1.6626 C.ar      1 <1>        -0.0700
     22 C22        -3.9502   -4.6700    1.2405 C.2       1 <1>        -0.2900
     23 S23        -2.2109   -4.8900    1.0622 S.3       1 <1>         0.1100
     24 C24         0.5365   -4.3951    1.8684 C.ar      1 <1>        -0.2000
     25 C25         1.7063   -5.1324    1.8345 C.ar      1 <1>         0.1700
     26 O26         1.8208   -6.2636    2.5737 O.3       1 <1>        -0.4700
     27 H27         3.4721   -3.1917   -0.3385 H         1 <1>         0.1400
     28 H28         1.3963   -1.9103   -0.2723 H         1 <1>         0.1200
     29 H29        -0.7192   -1.5301    1.1212 H         1 <1>         0.4200
     30 H30        -6.4938   -4.7607    1.4651 H         1 <1>         0.1300
     31 H31        -8.7600   -3.9219    1.7318 H         1 <1>         0.1300
     32 H32       -10.3053   -2.0152    2.0186 H         1 <1>         0.1300
     33 H33       -10.6522    0.3853    2.2374 H         1 <1>         0.1200
     34 H34        -8.7522    1.9432    2.1895 H         1 <1>         0.1200
     35 H35        -6.4737    1.1249    1.9228 H         1 <1>         0.1300
     36 H36        -4.9168   -0.7810    1.6441 H         1 <1>         0.1400
     37 H37        -4.6908   -5.4560    1.2413 H         1 <1>         0.1800
     38 H38        -0.2907   -4.7211    2.4815 H         1 <1>         0.1300
     39 H39         1.5364   -7.0650    2.1131 H         1 <1>         0.3900
@<TRIPOS>BOND
     1    1    2 ar
     2    2    3 ar
     3    2    4 1
     4    4   25 ar
     5    4    5 ar
     6    5    6 ar
     7    5   27 1
     8    6    7 ar
     9    6   28 1
    10    7    8 1
    11    7   24 ar
    12    8    9 1
    13    8   29 1
    14    9   23 1
    15    9   10 2
    16   10   11 1
    17   11   12 1
    18   11   22 2
    19   12   21 ar
    20   12   13 ar
    21   13   14 ar
    22   13   30 1
    23   14   15 ar
    24   14   31 1
    25   15   20 ar
    26   15   16 ar
    27   16   17 ar
    28   16   32 1
    29   17   18 ar
    30   17   33 1
    31   18   19 ar
    32   18   34 1
    33   19   20 ar
    34   19   35 1
    35   20   21 ar
    36   21   36 1
    37   22   23 1
    38   22   37 1
    39   24   25 ar
    40   24   38 1
    41   25   26 1
    42   26   39 1
@<TRIPOS>Similarity
1.1632
@<TRIPOS>ShapeSim
0.8230
@<TRIPOS>PharmSim
0.3402
# END
# Name:		O=C(O)C1=CC=C(NC2=NC(C3=CC=C4C=CC=CC4=C3)=CS2)C=C1O
# Created and modified by SHAFTS on Sun Mar 21 16:57:45 2021

# 

@<TRIPOS>MOLECULE
O=C(O)C1=CC=C(NC2=NC(C3=CC=C4C=CC=CC4=C3)=CS2)C=C1O
   39    42     0
SMALL
USER_CHARGE


@<TRIPOS>ATOM
      1 O1          4.9611   -5.0869    0.3031 O.co2     1 <1>        -0.5000
      2 C2          4.0282   -5.4682    0.9976 C.2       1 <1>         0.5200
      3 O3          4.1380   -6.4898    1.6627 O.co2     1 <1>        -0.5000
      4 C4          2.7798   -4.6970    1.0377 C.ar      1 <1>        -0.1700
      5 C5          2.6511   -3.5274    0.2777 C.ar      1 <1>        -0.0400
      6 C6          1.4906   -2.8117    0.3152 C.ar      1 <1>        -0.1600
      7 C7          0.4253   -3.2369    1.1081 C.ar      1 <1>         0.1500
      8 N8         -0.7531   -2.4993    1.1380 N.pl3     1 <1>        -0.6200
      9 C9         -1.9767   -3.1495    1.1921 C.2       1 <1>         0.3400
     10 N10        -3.1276   -2.5699    1.3405 N.2       1 <1>        -0.5400
     11 C11        -4.1968   -3.3543    1.3700 C.2       1 <1>         0.1400
     12 C12        -5.5691   -2.8176    1.5338 C.ar      1 <1>        -0.0200
     13 C13        -6.6625   -3.6984    1.5630 C.ar      1 <1>        -0.1000
     14 C14        -7.9293   -3.2320    1.7120 C.ar      1 <1>        -0.1100
     15 C15        -8.1592   -1.8506    1.8402 C.ar      1 <1>        -0.0500
     16 C16        -9.4602   -1.3432    1.9960 C.ar      1 <1>        -0.1100
     17 C17        -9.6507   -0.0010    2.1181 C.ar      1 <1>        -0.1200
     18 C18        -8.5733    0.8827    2.0909 C.ar      1 <1>        -0.1200
     19 C19        -7.2991    0.4287    1.9417 C.ar      1 <1>        -0.1000
     20 C20        -7.0628   -0.9517    1.8126 C.ar      1 <1>        -0.0500
     21 C21        -5.7613   -1.4539    1.6626 C.ar      1 <1>        -0.0700
     22 C22        -3.9502   -4.6700    1.2405 C.2       1 <1>        -0.2900
     23 S23        -2.2109   -4.8900    1.0622 S.3       1 <1>         0.1100
     24 C24         0.5365   -4.3951    1.8684 C.ar      1 <1>        -0.2000
     25 C25         1.7063   -5.1324    1.8345 C.ar      1 <1>         0.1700
     26 O26         1.8208   -6.2636    2.5737 O.3       1 <1>        -0.4700
     27 H27         3.4721   -3.1917   -0.3385 H         1 <1>         0.1400
     28 H28         1.3963   -1.9103   -0.2723 H         1 <1>         0.1200
     29 H29        -0.7192   -1.5301    1.1212 H         1 <1>         0.4200
     30 H30        -6.4938   -4.7607    1.4651 H         1 <1>         0.1300
     31 H31        -8.7600   -3.9219    1.7318 H         1 <1>         0.1300
     32 H32       -10.3053   -2.0152    2.0186 H         1 <1>         0.1300
     33 H33       -10.6522    0.3853    2.2374 H         1 <1>         0.1200
     34 H34        -8.7522    1.9432    2.1895 H         1 <1>         0.1200
     35 H35        -6.4737    1.1249    1.9228 H         1 <1>         0.1300
     36 H36        -4.9168   -0.7810    1.6441 H         1 <1>         0.1400
     37 H37        -4.6908   -5.4560    1.2413 H         1 <1>         0.1800
     38 H38        -0.2907   -4.7211    2.4815 H         1 <1>         0.1300
     39 H39         1.5364   -7.0650    2.1131 H         1 <1>         0.3900
@<TRIPOS>BOND
     1    1    2 ar
     2    2    3 ar
     3    2    4 1
     4    4   25 ar
     5    4    5 ar
     6    5    6 ar
     7    5   27 1
     8    6    7 ar
     9    6   28 1
    10    7    8 1
    11    7   24 ar
    12    8    9 1
    13    8   29 1
    14    9   23 1
    15    9   10 2
    16   10   11 1
    17   11   12 1
    18   11   22 2
    19   12   21 ar
    20   12   13 ar
    21   13   14 ar
    22   13   30 1
    23   14   15 ar
    24   14   31 1
    25   15   20 ar
    26   15   16 ar
    27   16   17 ar
    28   16   32 1
    29   17   18 ar
    30   17   33 1
    31   18   19 ar
    32   18   34 1
    33   19   20 ar
    34   19   35 1
    35   20   21 ar
    36   21   36 1
    37   22   23 1
    38   22   37 1
    39   24   25 ar
    40   24   38 1
    41   25   26 1
    42   26   39 1
@<TRIPOS>Similarity
1.1632
@<TRIPOS>ShapeSim
0.8230
@<TRIPOS>PharmSim
0.3402
# END
# Name:		COC1=CC=C(C=C1)C2=CC(=O)C3=C(C=C(C=C3O2)O)O
# Created and modified by SHAFTS on Sun Mar 21 16:57:45 2021

# 

@<TRIPOS>MOLECULE
COC1=CC=C(C=C1)C2=CC(=O)C3=C(C=C(C=C3O2)O)O
   32    34     0
SMALL
USER_CHARGE


@<TRIPOS>ATOM
      1 C1         -9.7353    0.2007    2.1323 C.3       1 <1>         0.0240
      2 O2         -9.4121   -1.1858    2.0083 O.3       1 <1>        -0.4181
      3 C3         -8.0999   -1.5022    1.8629 C.ar      1 <1>        -0.0137
      4 C4         -7.1422   -0.4953    1.8460 C.ar      1 <1>        -0.0646
      5 C5         -5.8098   -0.8119    1.6993 C.ar      1 <1>        -0.0732
      6 C6         -5.4216   -2.1481    1.5670 C.ar      1 <1>        -0.0249
      7 C7         -3.9958   -2.4920    1.4100 C.2       1 <1>         0.0434
      8 C8         -3.6492   -3.8007    1.2780 C.2       1 <1>         0.0094
      9 C9         -2.2864   -4.1496    1.1259 C.2       1 <1>         0.0580
     10 O10        -1.9397   -5.3134    1.0046 O.2       1 <1>        -0.4959
     11 C11        -1.3028   -3.0535    1.1192 C.ar      1 <1>         0.0340
     12 C12         0.0666   -3.3064    0.9733 C.ar      1 <1>        -0.0249
     13 O13         0.5157   -4.5795    0.8341 O.3       1 <1>        -0.4308
     14 C14         0.9580   -2.2492    0.9717 C.ar      1 <1>        -0.0380
     15 C15         0.4957   -0.9457    1.1140 C.ar      1 <1>        -0.0658
     16 O16         1.3794    0.0850    1.1111 O.3       1 <1>        -0.5744
     17 C17        -0.8590   -0.6880    1.2585 C.ar      1 <1>        -0.0300
     18 C18        -1.7676   -1.7346    1.2629 C.ar      1 <1>         0.0274
     19 O19        -3.0903   -1.5009    1.3973 O.3       1 <1>        -0.3440
     20 C20        -6.3882   -3.1576    1.5845 C.ar      1 <1>        -0.0656
     21 C21        -7.7179   -2.8325    1.7370 C.ar      1 <1>        -0.0517
     22 H22        -9.2356    0.6132    3.0088 H         1 <1>         0.0922
     23 H23        -9.4028    0.7324    1.2407 H         1 <1>         0.0922
     24 H24       -10.8138    0.3139    2.2419 H         1 <1>         0.1211
     25 H25        -7.4431    0.5369    1.9479 H         1 <1>         0.1121
     26 H26        -5.0662   -0.0288    1.6859 H         1 <1>         0.1468
     27 H27        -4.4090   -4.5682    1.2896 H         1 <1>         0.1251
     28 H28         0.5649   -4.8811   -0.0834 H         1 <1>         0.3510
     29 H29         2.0157   -2.4365    0.8600 H         1 <1>         0.0953
     30 H30        -1.2064    0.3286    1.3682 H         1 <1>         0.1023
     31 H31        -6.0925   -4.1913    1.4825 H         1 <1>         0.1469
     32 H32        -8.4654   -3.6118    1.7507 H         1 <1>         0.1345
@<TRIPOS>BOND
     1    1    2 1
     2    1   22 1
     3    1   23 1
     4    1   24 1
     5    2    3 1
     6    3   21 ar
     7    3    4 ar
     8    4    5 ar
     9    4   25 1
    10    5    6 ar
    11    5   26 1
    12    6    7 1
    13    6   20 ar
    14    7   19 1
    15    7    8 2
    16    8    9 1
    17    8   27 1
    18    9   10 2
    19    9   11 1
    20   11   18 ar
    21   11   12 ar
    22   12   13 1
    23   12   14 ar
    24   13   28 1
    25   14   15 ar
    26   14   29 1
    27   15   16 1
    28   15   17 ar
    29   17   18 ar
    30   17   30 1
    31   18   19 1
    32   20   21 ar
    33   20   31 1
    34   21   32 1
@<TRIPOS>Similarity
1.1630
@<TRIPOS>ShapeSim
0.8214
@<TRIPOS>PharmSim
0.3416
# END
# Name:		COC1=CC=C(C=C1)C2=CC(=O)C3=C(C=C(C=C3O2)O)O
# Created and modified by SHAFTS on Sun Mar 21 16:57:45 2021

# 

@<TRIPOS>MOLECULE
COC1=CC=C(C=C1)C2=CC(=O)C3=C(C=C(C=C3O2)O)O
   32    34     0
SMALL
USER_CHARGE


@<TRIPOS>ATOM
      1 C1         -9.7353    0.2007    2.1323 C.3       1 <1>         0.0240
      2 O2         -9.4121   -1.1858    2.0083 O.3       1 <1>        -0.4181
      3 C3         -8.0999   -1.5022    1.8629 C.ar      1 <1>        -0.0137
      4 C4         -7.1422   -0.4953    1.8460 C.ar      1 <1>        -0.0646
      5 C5         -5.8098   -0.8119    1.6993 C.ar      1 <1>        -0.0732
      6 C6         -5.4216   -2.1481    1.5670 C.ar      1 <1>        -0.0249
      7 C7         -3.9958   -2.4920    1.4100 C.2       1 <1>         0.0434
      8 C8         -3.6492   -3.8007    1.2780 C.2       1 <1>         0.0094
      9 C9         -2.2864   -4.1496    1.1259 C.2       1 <1>         0.0580
     10 O10        -1.9397   -5.3134    1.0046 O.2       1 <1>        -0.4959
     11 C11        -1.3028   -3.0535    1.1192 C.ar      1 <1>         0.0340
     12 C12         0.0666   -3.3064    0.9733 C.ar      1 <1>        -0.0249
     13 O13         0.5157   -4.5795    0.8341 O.3       1 <1>        -0.4308
     14 C14         0.9580   -2.2492    0.9717 C.ar      1 <1>        -0.0380
     15 C15         0.4957   -0.9457    1.1140 C.ar      1 <1>        -0.0658
     16 O16         1.3794    0.0850    1.1111 O.3       1 <1>        -0.5744
     17 C17        -0.8590   -0.6880    1.2585 C.ar      1 <1>        -0.0300
     18 C18        -1.7676   -1.7346    1.2629 C.ar      1 <1>         0.0274
     19 O19        -3.0903   -1.5009    1.3973 O.3       1 <1>        -0.3440
     20 C20        -6.3882   -3.1576    1.5845 C.ar      1 <1>        -0.0656
     21 C21        -7.7179   -2.8325    1.7370 C.ar      1 <1>        -0.0517
     22 H22        -9.2356    0.6132    3.0088 H         1 <1>         0.0922
     23 H23        -9.4028    0.7324    1.2407 H         1 <1>         0.0922
     24 H24       -10.8138    0.3139    2.2419 H         1 <1>         0.1211
     25 H25        -7.4431    0.5369    1.9479 H         1 <1>         0.1121
     26 H26        -5.0662   -0.0288    1.6859 H         1 <1>         0.1468
     27 H27        -4.4090   -4.5682    1.2896 H         1 <1>         0.1251
     28 H28         0.5649   -4.8811   -0.0834 H         1 <1>         0.3510
     29 H29         2.0157   -2.4365    0.8600 H         1 <1>         0.0953
     30 H30        -1.2064    0.3286    1.3682 H         1 <1>         0.1023
     31 H31        -6.0925   -4.1913    1.4825 H         1 <1>         0.1469
     32 H32        -8.4654   -3.6118    1.7507 H         1 <1>         0.1345
@<TRIPOS>BOND
     1    1    2 1
     2    1   22 1
     3    1   23 1
     4    1   24 1
     5    2    3 1
     6    3   21 ar
     7    3    4 ar
     8    4    5 ar
     9    4   25 1
    10    5    6 ar
    11    5   26 1
    12    6    7 1
    13    6   20 ar
    14    7   19 1
    15    7    8 2
    16    8    9 1
    17    8   27 1
    18    9   10 2
    19    9   11 1
    20   11   18 ar
    21   11   12 ar
    22   12   13 1
    23   12   14 ar
    24   13   28 1
    25   14   15 ar
    26   14   29 1
    27   15   16 1
    28   15   17 ar
    29   17   18 ar
    30   17   30 1
    31   18   19 1
    32   20   21 ar
    33   20   31 1
    34   21   32 1
@<TRIPOS>Similarity
1.1630
@<TRIPOS>ShapeSim
0.8214
@<TRIPOS>PharmSim
0.3416
# END
# Name:		CC(C)(C)C1=CC(=NO1)C(=O)C(=NNC2=CC(=CC=C2)Cl)C#N
# Created and modified by SHAFTS on Sun Mar 21 16:57:45 2021

# 

@<TRIPOS>MOLECULE
CC(C)(C)C1=CC(=NO1)C(=O)C(=NNC2=CC(=CC=C2)Cl)C#N
   38    39     0
SMALL
USER_CHARGE


@<TRIPOS>ATOM
      1 C1         -8.9688   -1.2684    3.2224 C.3       1 <1>        -0.0514
      2 C2         -8.3053   -0.7651    1.9388 C.3       1 <1>        -0.0186
      3 C3         -9.2006   -1.0888    0.7411 C.3       1 <1>        -0.0514
      4 C4         -8.1022    0.7486    2.0295 C.3       1 <1>        -0.0525
      5 C5         -6.9699   -1.4415    1.7651 C.2       1 <1>         0.0679
      6 C6         -6.7475   -2.7704    1.6426 C.2       1 <1>        -0.0147
      7 C7         -5.3344   -2.8700    1.5061 C.2       1 <1>         0.1092
      8 C8         -4.5406   -4.1109    1.3379 C.2       1 <1>         0.2189
      9 O9         -5.0994   -5.1907    1.3054 O.2       1 <1>        -0.4030
     10 C10        -3.0798   -4.0364    1.2106 C.2       1 <1>         0.2596
     11 C11        -2.3131   -5.2348    1.0481 C.1       1 <1>         0.1125
     12 N12        -1.7049   -6.1856    0.9192 N.1       1 <1>        -0.3515
     13 N13        -2.4737   -2.8655    1.2459 N.2       1 <1>        -0.2337
     14 N14        -1.1902   -2.7999    1.1340 N.pl3     1 <1>        -0.2743
     15 C15        -0.5493   -1.5618    1.1713 C.ar      1 <1>        -0.0182
     16 C16        -1.2914   -0.3978    1.3347 C.ar      1 <1>        -0.0496
     17 C17        -0.6539    0.8266    1.3717 C.ar      1 <1>        -0.0790
     18 C18         0.7213    0.8965    1.2460 C.ar      1 <1>        -0.0689
     19 C19         1.4644   -0.2604    1.0826 C.ar      1 <1>        -0.0045
     20 Cl20        3.1907   -0.1672    0.9253 Cl        1 <1>        -0.1294
     21 C21         0.8336   -1.4892    1.0509 C.ar      1 <1>        -0.0346
     22 N22        -4.8767   -1.6432    1.5588 N.2       1 <1>        -0.2087
     23 O23        -5.7727   -0.8430    1.6961 O.3       1 <1>        -0.2492
     24 H24        -9.1135   -2.3468    3.1578 H         1 <1>         0.0423
     25 H25        -8.3310   -1.0378    4.0756 H         1 <1>         0.0423
     26 H26        -9.9346   -0.7791    3.3480 H         1 <1>         0.0495
     27 H27       -10.1664   -0.5995    0.8668 H         1 <1>         0.0495
     28 H28        -8.7280   -0.7301   -0.1733 H         1 <1>         0.0423
     29 H29        -9.3453   -2.1672    0.6766 H         1 <1>         0.0423
     30 H30        -7.4643    0.9792    2.8828 H         1 <1>         0.0402
     31 H31        -7.6295    1.1072    1.1151 H         1 <1>         0.0402
     32 H32        -9.0681    1.2379    2.1552 H         1 <1>         0.0474
     33 H33        -7.4736   -3.5699    1.6478 H         1 <1>         0.1555
     34 H34        -0.6709   -3.6118    1.0240 H         1 <1>         0.3568
     35 H35        -2.3657   -0.4510    1.4324 H         1 <1>         0.1563
     36 H36        -1.2303    1.7311    1.4987 H         1 <1>         0.1460
     37 H37         1.2169    1.8556    1.2750 H         1 <1>         0.1344
     38 H38         1.4134   -2.3916    0.9235 H         1 <1>         0.1401
@<TRIPOS>BOND
     1    1    2 1
     2    1   24 1
     3    1   25 1
     4    1   26 1
     5    2    3 1
     6    2    4 1
     7    2    5 1
     8    3   27 1
     9    3   28 1
    10    3   29 1
    11    4   30 1
    12    4   31 1
    13    4   32 1
    14    5   23 1
    15    5    6 2
    16    6    7 1
    17    6   33 1
    18    7    8 1
    19    7   22 2
    20    8    9 2
    21    8   10 1
    22   10   11 1
    23   10   13 2
    24   11   12 3
    25   13   14 1
    26   14   15 1
    27   14   34 1
    28   15   21 ar
    29   15   16 ar
    30   16   17 ar
    31   16   35 1
    32   17   18 ar
    33   17   36 1
    34   18   19 ar
    35   18   37 1
    36   19   20 1
    37   19   21 ar
    38   21   38 1
    39   22   23 1
@<TRIPOS>Similarity
1.1587
@<TRIPOS>ShapeSim
0.7550
@<TRIPOS>PharmSim
0.4037
# END
# Name:		CCCC(=O)NC1=NNC2=C1C=CC(=C2)Cl
# Created and modified by SHAFTS on Sun Mar 21 16:57:45 2021

# 

@<TRIPOS>MOLECULE
CCCC(=O)NC1=NNC2=C1C=CC(=C2)Cl
   28    29     0
SMALL
USER_CHARGE


@<TRIPOS>ATOM
      1 C1          1.8428   -4.1322    0.7695 C.3       1 <1>        -0.0673
      2 C2          0.3962   -4.6233    0.8557 C.3       1 <1>        -0.0466
      3 C3         -0.5385   -3.4262    1.0408 C.3       1 <1>         0.0444
      4 C4         -1.9632   -3.9098    1.1256 C.2       1 <1>         0.0959
      5 O5         -2.2070   -5.0954    1.0459 O.2       1 <1>        -0.4682
      6 N6         -2.9666   -3.0251    1.2901 N.am      1 <1>        -0.2710
      7 C7         -4.2896   -3.4743    1.3690 C.2       1 <1>         0.0575
      8 N8         -4.6871   -4.7170    1.3037 N.2       1 <1>        -0.2966
      9 N9         -6.0793   -4.7816    1.4194 N.pl3     1 <1>        -0.2997
     10 C10        -6.5788   -3.5134    1.5645 C.ar      1 <1>        -0.0191
     11 C11        -7.8626   -2.9959    1.7176 C.ar      1 <1>        -0.0333
     12 C12        -8.0403   -1.6358    1.8423 C.ar      1 <1>        -0.0025
     13 Cl13       -9.6411   -0.9917    2.0330 Cl        1 <1>        -0.1296
     14 C14        -6.9496   -0.7737    1.8172 C.ar      1 <1>        -0.0632
     15 C15        -5.6830   -1.2597    1.6677 C.ar      1 <1>        -0.0640
     16 C16        -5.4771   -2.6368    1.5458 C.ar      1 <1>         0.0124
     17 H17         2.1033   -3.6064    1.6880 H         1 <1>         0.0352
     18 H18         2.5086   -4.9850    0.6376 H         1 <1>         0.0352
     19 H19         1.9468   -3.4554   -0.0786 H         1 <1>         0.0352
     20 H20         0.1357   -5.1490   -0.0629 H         1 <1>         0.0494
     21 H21         0.2922   -5.3000    1.7038 H         1 <1>         0.0494
     22 H22        -0.2780   -2.9004    1.9594 H         1 <1>         0.0986
     23 H23        -0.4345   -2.7495    0.1927 H         1 <1>         0.0986
     24 H24        -2.7717   -2.0771    1.3539 H         1 <1>         0.3434
     25 H25        -6.6077   -5.5948    1.3995 H         1 <1>         0.3832
     26 H26        -8.7154   -3.6583    1.7382 H         1 <1>         0.1411
     27 H27        -7.1062    0.2903    1.9166 H         1 <1>         0.1304
     28 H28        -4.8418   -0.5827    1.6490 H         1 <1>         0.1515
@<TRIPOS>BOND
     1    1    2 1
     2    1   17 1
     3    1   18 1
     4    1   19 1
     5    2    3 1
     6    2   20 1
     7    2   21 1
     8    3    4 1
     9    3   22 1
    10    3   23 1
    11    4    5 2
    12    4    6 am
    13    6    7 1
    14    6   24 1
    15    7   16 1
    16    7    8 2
    17    8    9 1
    18    9   10 1
    19    9   25 1
    20   10   16 ar
    21   10   11 ar
    22   11   12 ar
    23   11   26 1
    24   12   13 1
    25   12   14 ar
    26   14   15 ar
    27   14   27 1
    28   15   16 ar
    29   15   28 1
@<TRIPOS>Similarity
1.1584
@<TRIPOS>ShapeSim
0.8165
@<TRIPOS>PharmSim
0.3419
# END
# Name:		COC1=CC(=C2C(=C1)OC(=CC2=O)C3=CC=CC=C3)O
# Created and modified by SHAFTS on Sun Mar 21 16:57:45 2021

# 

@<TRIPOS>MOLECULE
COC1=CC(=C2C(=C1)OC(=CC2=O)C3=CC=CC=C3)O
   32    34     0
SMALL
USER_CHARGE


@<TRIPOS>ATOM
      1 C1          0.8965   -1.7036    1.0110 C.3       1 <1>         0.0279
      2 O2         -0.3385   -1.0056    1.1834 O.3       1 <1>        -0.4066
      3 C3         -1.4687   -1.7555    1.2305 C.2       1 <1>         0.0046
      4 C4         -1.3722   -3.1323    1.1174 C.2       1 <1>        -0.0112
      5 C5         -2.5244   -3.9203    1.1638 C.2       1 <1>         0.0386
      6 O6         -2.4463   -5.2460    1.0562 O.2       1 <1>        -0.5446
      7 C7         -3.8176   -3.2605    1.3330 C.2       1 <1>         0.0701
      8 C8         -5.0141   -4.0021    1.3875 C.2       1 <1>         0.0329
      9 O9         -4.9998   -5.3492    1.2845 O.3       1 <1>        -0.3689
     10 C10        -6.2180   -3.3074    1.5517 C.2       1 <1>         0.0057
     11 C11        -6.2047   -1.9337    1.6547 C.2       1 <1>         0.0637
     12 C12        -7.4798   -1.2115    1.8274 C.ar      1 <1>        -0.0169
     13 C13        -8.6835   -1.9180    1.8911 C.ar      1 <1>        -0.0724
     14 C14        -9.8715   -1.2363    2.0531 C.ar      1 <1>        -0.0898
     15 C15        -9.8731    0.1440    2.1526 C.ar      1 <1>        -0.0947
     16 C16        -8.6846    0.8503    2.0904 C.ar      1 <1>        -0.0898
     17 C17        -7.4885    0.1816    1.9339 C.ar      1 <1>        -0.0724
     18 O18        -5.0582   -1.2369    1.6019 O.3       1 <1>        -0.3125
     19 C19        -3.8685   -1.8546    1.4445 C.2       1 <1>         0.0657
     20 C20        -2.6947   -1.1250    1.3967 C.2       1 <1>        -0.0047
     21 H21         0.8730   -2.2572    0.0723 H         1 <1>         0.0910
     22 H22         1.7185   -0.9880    0.9903 H         1 <1>         0.1199
     23 H23         1.0400   -2.3980    1.8389 H         1 <1>         0.0910
     24 H24        -0.4054   -3.5972    0.9930 H         1 <1>         0.1069
     25 H25        -5.8752   -5.7568    1.3345 H         1 <1>         0.4101
     26 H26        -7.1531   -3.8458    1.5970 H         1 <1>         0.1361
     27 H27        -8.6839   -2.9952    1.8132 H         1 <1>         0.1425
     28 H28       -10.8028   -1.7810    2.1022 H         1 <1>         0.1308
     29 H29       -10.8063    0.6725    2.2791 H         1 <1>         0.1298
     30 H30        -8.6934    1.9274    2.1688 H         1 <1>         0.1308
     31 H31        -6.5619    0.7340    1.8859 H         1 <1>         0.1425
     32 H32        -2.7324   -0.0494    1.4865 H         1 <1>         0.1343
@<TRIPOS>BOND
     1    1    2 1
     2    1   21 1
     3    1   22 1
     4    1   23 1
     5    2    3 1
     6    3   20 1
     7    3    4 2
     8    4    5 1
     9    4   24 1
    10    5    6 2
    11    5    7 1
    12    7   19 1
    13    7    8 2
    14    8    9 1
    15    8   10 1
    16    9   25 1
    17   10   11 2
    18   10   26 1
    19   11   12 1
    20   11   18 1
    21   12   17 ar
    22   12   13 ar
    23   13   14 ar
    24   13   27 1
    25   14   15 ar
    26   14   28 1
    27   15   16 ar
    28   15   29 1
    29   16   17 ar
    30   16   30 1
    31   17   31 1
    32   18   19 1
    33   19   20 2
    34   20   32 1
@<TRIPOS>Similarity
1.1506
@<TRIPOS>ShapeSim
0.7671
@<TRIPOS>PharmSim
0.3835
# END
# Name:		CC1COCCN1C2=NC(=NC3=C2C=CC(=N3)C4=CC(=CC=C4)C(=O)NC)N5CCOCC5C
# Created and modified by SHAFTS on Sun Mar 21 16:57:45 2021

# 

@<TRIPOS>MOLECULE
CC1COCCN1C2=NC(=NC3=C2C=CC(=N3)C4=CC(=CC=C4)C(=O)NC)N5CCOCC5C
   64    68     0
SMALL
USER_CHARGE


@<TRIPOS>ATOM
      1 C1          1.6402   -3.9458    0.7013 C.3       1 <1>        -0.0295
      2 N2          0.3019   -4.5402    0.7470 N.am      1 <1>        -0.3514
      3 C3         -0.7762   -3.7580    0.9520 C.2       1 <1>         0.0998
      4 O4         -0.6383   -2.5592    1.0989 O.2       1 <1>        -0.4801
      5 C5         -2.1269   -4.3578    0.9980 C.ar      1 <1>         0.0322
      6 C6         -2.2867   -5.7354    0.8351 C.ar      1 <1>        -0.0676
      7 C7         -3.5478   -6.2961    0.8775 C.ar      1 <1>        -0.0864
      8 C8         -4.6575   -5.4998    1.0815 C.ar      1 <1>        -0.0665
      9 C9         -4.5111   -4.1221    1.2462 C.ar      1 <1>        -0.0110
     10 C10        -5.7042   -3.2694    1.4655 C.ar      1 <1>         0.0057
     11 C11        -6.9582   -3.8735    1.6158 C.ar      1 <1>        -0.0422
     12 C12        -8.0660   -3.0976    1.8191 C.ar      1 <1>        -0.0538
     13 C13        -7.8995   -1.7072    1.8698 C.ar      1 <1>         0.0623
     14 C14        -6.6043   -1.1536    1.7107 C.ar      1 <1>         0.0601
     15 N15        -5.5583   -1.9559    1.5202 N.ar      1 <1>        -0.3312
     16 N16        -6.4674    0.1795    1.7630 N.ar      1 <1>        -0.2943
     17 C17        -7.5178    0.9543    1.9584 C.ar      1 <1>         0.0905
     18 N18        -7.3305    2.3226    2.0047 N.pl3     1 <1>        -0.3392
     19 C19        -8.4736    3.2395    2.1380 C.3       1 <1>         0.0135
     20 C20        -8.3615    4.3133    1.0498 C.3       1 <1>         0.0229
     21 O21        -7.0619    4.9064    1.1058 O.3       1 <1>        -0.4552
     22 C22        -5.9913    3.9957    0.8450 C.3       1 <1>         0.0237
     23 C23        -5.9815    2.9054    1.9284 C.3       1 <1>         0.0030
     24 H24        -5.7105    3.3444    2.8886 H         1 <1>         0.1124
     25 C25        -4.9720    1.8178    1.5559 C.3       1 <1>        -0.0314
     26 N26        -8.7488    0.4751    2.1120 N.ar      1 <1>        -0.2887
     27 C27        -8.9902   -0.8279    2.0766 C.ar      1 <1>         0.0427
     28 N28       -10.2693   -1.3142    2.2374 N.pl3     1 <1>        -0.3754
     29 C29       -11.1504   -1.5263    1.0780 C.3       1 <1>        -0.0042
     30 C30       -12.4952   -0.8474    1.3622 C.3       1 <1>         0.0213
     31 O31       -12.9905   -1.2950    2.6263 O.3       1 <1>        -0.4547
     32 C32       -12.1567   -0.9531    3.7360 C.3       1 <1>         0.0208
     33 C33       -10.7926   -1.6426    3.5729 C.3       1 <1>        -0.0124
     34 H34       -10.9125   -2.7215    3.6711 H         1 <1>         0.1121
     35 C35        -9.8259   -1.1322    4.6435 C.3       1 <1>        -0.0375
     36 C36        -3.2431   -3.5505    1.2099 C.ar      1 <1>        -0.0298
     37 H37         1.6864   -3.2165   -0.1075 H         1 <1>         0.0843
     38 H38         1.8505   -3.4508    1.6494 H         1 <1>         0.0843
     39 H39         2.3795   -4.7279    0.5280 H         1 <1>         0.0987
     40 H40         0.1919   -5.4967    0.6297 H         1 <1>         0.2946
     41 H41        -1.4227   -6.3632    0.6752 H         1 <1>         0.1337
     42 H42        -3.6669   -7.3620    0.7503 H         1 <1>         0.1292
     43 H43        -5.6411   -5.9446    1.1132 H         1 <1>         0.1457
     44 H44        -7.0506   -4.9486    1.5710 H         1 <1>         0.1268
     45 H45        -9.0422   -3.5441    1.9371 H         1 <1>         0.1554
     46 H46        -9.4045    2.6863    2.0134 H         1 <1>         0.1322
     47 H47        -8.4544    3.7098    3.1212 H         1 <1>         0.1105
     48 H48        -8.5116    3.8571    0.0713 H         1 <1>         0.0905
     49 H49        -9.1189    5.0796    1.2150 H         1 <1>         0.1339
     50 H50        -6.1327    3.5383   -0.1343 H         1 <1>         0.0989
     51 H51        -5.0433    4.5336    0.8629 H         1 <1>         0.1351
     52 H52        -4.0008    2.2739    1.3637 H         1 <1>         0.0431
     53 H53        -4.8835    1.1072    2.3777 H         1 <1>         0.0717
     54 H54        -5.3125    1.2973    0.6607 H         1 <1>         0.0645
     55 H55       -10.6985   -1.0876    0.1884 H         1 <1>         0.1102
     56 H56       -11.3037   -2.5944    0.9239 H         1 <1>         0.1029
     57 H57       -12.3593    0.2338    1.3864 H         1 <1>         0.0982
     58 H58       -13.2072   -1.1081    0.5791 H         1 <1>         0.1271
     59 H59       -12.0195    0.1278    3.7690 H         1 <1>         0.0990
     60 H60       -12.6252   -1.2897    4.6609 H         1 <1>         0.1280
     61 H61       -10.2507   -1.3105    5.6313 H         1 <1>         0.0582
     62 H62        -8.8758   -1.6591    4.5560 H         1 <1>         0.0439
     63 H63        -9.6626   -0.0633    4.5057 H         1 <1>         0.0511
     64 H64        -3.1250   -2.4845    1.3369 H         1 <1>         0.1680
@<TRIPOS>BOND
     1    1    2 1
     2    1   37 1
     3    1   38 1
     4    1   39 1
     5    2    3 am
     6    2   40 1
     7    3    4 2
     8    3    5 1
     9    5   36 ar
    10    5    6 ar
    11    6    7 ar
    12    6   41 1
    13    7    8 ar
    14    7   42 1
    15    8    9 ar
    16    8   43 1
    17    9   10 1
    18    9   36 ar
    19   10   15 ar
    20   10   11 ar
    21   11   12 ar
    22   11   44 1
    23   12   13 ar
    24   12   45 1
    25   13   27 ar
    26   13   14 ar
    27   14   15 ar
    28   14   16 ar
    29   16   17 ar
    30   17   18 1
    31   17   26 ar
    32   18   23 1
    33   18   19 1
    34   19   20 1
    35   19   46 1
    36   19   47 1
    37   20   21 1
    38   20   48 1
    39   20   49 1
    40   21   22 1
    41   22   23 1
    42   22   50 1
    43   22   51 1
    44   23   24 1
    45   23   25 1
    46   25   52 1
    47   25   53 1
    48   25   54 1
    49   26   27 ar
    50   27   28 1
    51   28   33 1
    52   28   29 1
    53   29   30 1
    54   29   55 1
    55   29   56 1
    56   30   31 1
    57   30   57 1
    58   30   58 1
    59   31   32 1
    60   32   33 1
    61   32   59 1
    62   32   60 1
    63   33   34 1
    64   33   35 1
    65   35   61 1
    66   35   62 1
    67   35   63 1
    68   36   64 1
@<TRIPOS>Similarity
1.1448
@<TRIPOS>ShapeSim
0.6748
@<TRIPOS>PharmSim
0.4700
# END
# Name:		CCOC(=O)C1=CNC2=C(C1=O)C=C(C=C2)C
# Created and modified by SHAFTS on Sun Mar 21 16:57:45 2021

# 

@<TRIPOS>MOLECULE
CCOC(=O)C1=CNC2=C(C1=O)C=C(C=C2)C
   29    30     0
SMALL
USER_CHARGE


@<TRIPOS>ATOM
      1 C1          1.2850   -1.2434    1.0279 C.3       1 <1>        -0.0371
      2 C2          0.6784   -2.6470    0.9706 C.3       1 <1>         0.0241
      3 O3         -0.7640   -2.5570    1.1107 O.3       1 <1>        -0.3577
      4 C4         -1.4551   -3.7140    1.0810 C.2       1 <1>         0.1433
      5 O5         -0.8680   -4.7693    0.9418 O.2       1 <1>        -0.4979
      6 C6         -2.9185   -3.6995    1.2171 C.2       1 <1>         0.0869
      7 C7         -3.6371   -4.8778    1.1941 C.2       1 <1>        -0.0435
      8 N8         -4.9704   -4.9030    1.3156 N.pl3     1 <1>        -0.4094
      9 C9         -5.7279   -3.7623    1.4724 C.ar      1 <1>        -0.0580
     10 C10        -7.1124   -3.8441    1.5948 C.ar      1 <1>        -0.0721
     11 C11        -7.8585   -2.6965    1.7515 C.ar      1 <1>        -0.1085
     12 C12        -7.2459   -1.4522    1.7888 C.ar      1 <1>        -0.1250
     13 C13        -8.0811   -0.2097    1.9608 C.3       1 <1>        -0.0543
     14 C14        -5.8776   -1.3476    1.6695 C.ar      1 <1>        -0.0886
     15 C15        -5.1097   -2.5009    1.5109 C.ar      1 <1>         0.0049
     16 C16        -3.6419   -2.4288    1.3862 C.2       1 <1>         0.0643
     17 O17        -3.0533   -1.3624    1.4179 O.2       1 <1>        -0.5136
     18 H18         1.0410   -0.7810    1.9843 H         1 <1>         0.0432
     19 H19         2.3677   -1.3110    0.9226 H         1 <1>         0.0504
     20 H20         0.8782   -0.6385    0.2175 H         1 <1>         0.0432
     21 H21         0.9223   -3.1094    0.0141 H         1 <1>         0.0938
     22 H22         1.0852   -3.2519    1.7809 H         1 <1>         0.0938
     23 H23        -3.1062   -5.8106    1.0737 H         1 <1>         0.2095
     24 H24        -7.6013   -4.8067    1.5668 H         1 <1>         0.1182
     25 H25        -8.9322   -2.7662    1.8460 H         1 <1>         0.1091
     26 H26        -8.1873    0.0125    3.0226 H         1 <1>         0.0477
     27 H27        -7.5939    0.6277    1.4614 H         1 <1>         0.0477
     28 H28        -9.0663   -0.3705    1.5230 H         1 <1>         0.0477
     29 H29        -5.4022   -0.3783    1.6987 H         1 <1>         0.1278
@<TRIPOS>BOND
     1    1    2 1
     2    1   18 1
     3    1   19 1
     4    1   20 1
     5    2    3 1
     6    2   21 1
     7    2   22 1
     8    3    4 1
     9    4    5 2
    10    4    6 1
    11    6   16 1
    12    6    7 2
    13    7    8 1
    14    7   23 1
    15    8    9 1
    16    9   15 ar
    17    9   10 ar
    18   10   11 ar
    19   10   24 1
    20   11   12 ar
    21   11   25 1
    22   12   13 1
    23   12   14 ar
    24   13   26 1
    25   13   27 1
    26   13   28 1
    27   14   15 ar
    28   14   29 1
    29   15   16 1
    30   16   17 2
@<TRIPOS>Similarity
1.1443
@<TRIPOS>ShapeSim
0.7831
@<TRIPOS>PharmSim
0.3612
# END
# Name:		O=C(N(CC1)C(C=C2)=C1C=C2C)C(C3=CNC4=C3C=C(C)C=C4)=O
# Created and modified by SHAFTS on Sun Mar 21 16:57:45 2021

# 

@<TRIPOS>MOLECULE
O=C(N(CC1)C(C=C2)=C1C=C2C)C(C3=CNC4=C3C=C(C)C=C4)=O
   42    45     0
SMALL
USER_CHARGE


@<TRIPOS>ATOM
      1 C1          4.6847   -4.7011    0.4381 C.3       1 <1>        -0.0431
      2 C2          3.2492   -4.2742    0.6064 C.ar      1 <1>        -0.1126
      3 C3          2.2419   -5.2212    0.6229 C.ar      1 <1>        -0.0940
      4 C4          0.9276   -4.8341    0.7760 C.ar      1 <1>        -0.0635
      5 C5          0.6034   -3.4830    0.9161 C.ar      1 <1>        -0.0383
      6 C6          1.6210   -2.5415    0.8986 C.ar      1 <1>        -0.0725
      7 C7          2.9368   -2.9349    0.7502 C.ar      1 <1>        -0.0931
      8 C8          1.0091   -1.1690    1.0671 C.3       1 <1>        -0.0116
      9 C9         -0.5012   -1.4313    1.1855 C.3       1 <1>         0.0049
     10 N10        -0.6480   -2.8855    1.0806 N.am      1 <1>        -0.2963
     11 C11        -1.8197   -3.5493    1.1345 C.2       1 <1>         0.2291
     12 O12        -1.8369   -4.7593    1.0371 O.2       1 <1>        -0.4393
     13 C13        -3.0947   -2.7977    1.3138 C.2       1 <1>         0.2186
     14 O14        -3.0775   -1.5862    1.4113 O.2       1 <1>        -0.4128
     15 C15        -4.3660   -3.5179    1.3724 C.2       1 <1>         0.0454
     16 C16        -4.5508   -4.8847    1.2836 C.2       1 <1>        -0.0295
     17 N17        -5.8622   -5.1697    1.3793 N.pl3     1 <1>        -0.3548
     18 C18        -6.6035   -4.0148    1.5346 C.ar      1 <1>        -0.0591
     19 C19        -7.9659   -3.7740    1.6753 C.ar      1 <1>        -0.0725
     20 C20        -8.4255   -2.4818    1.8160 C.ar      1 <1>        -0.0932
     21 C21        -7.5415   -1.4138    1.8185 C.ar      1 <1>        -0.1078
     22 C22        -8.0628   -0.0084    1.9735 C.3       1 <1>        -0.0415
     23 C23        -6.1871   -1.6325    1.6802 C.ar      1 <1>        -0.0838
     24 C24        -5.7097   -2.9324    1.5444 C.ar      1 <1>        -0.0532
     25 H25         5.1242   -4.8917    1.4172 H         1 <1>         0.0564
     26 H26         4.7255   -5.6104   -0.1616 H         1 <1>         0.0564
     27 H27         5.2427   -3.9100   -0.0628 H         1 <1>         0.0564
     28 H28         2.4855   -6.2679    0.5150 H         1 <1>         0.1258
     29 H29         0.1455   -5.5787    0.7874 H         1 <1>         0.1387
     30 H30         3.7224   -2.1940    0.7378 H         1 <1>         0.1305
     31 H31         1.3847   -0.6937    1.9733 H         1 <1>         0.0824
     32 H32         1.2203   -0.5489    0.1958 H         1 <1>         0.0824
     33 H33        -0.8711   -1.0825    2.1496 H         1 <1>         0.1178
     34 H34        -1.0355   -0.9378    0.3736 H         1 <1>         0.1178
     35 H35        -3.7631   -5.6126    1.1567 H         1 <1>         0.2411
     36 H36        -6.2360   -6.0641    1.3436 H         1 <1>         0.3372
     37 H37        -8.6634   -4.5986    1.6740 H         1 <1>         0.1310
     38 H38        -9.4845   -2.2999    1.9250 H         1 <1>         0.1264
     39 H39        -8.0966    0.2521    3.0313 H         1 <1>         0.0568
     40 H40        -7.4032    0.6837    1.4499 H         1 <1>         0.0568
     41 H41        -9.0657    0.0558    1.5513 H         1 <1>         0.0568
     42 H42        -5.4998   -0.7994    1.6825 H         1 <1>         0.1336
@<TRIPOS>BOND
     1    1    2 1
     2    1   25 1
     3    1   26 1
     4    1   27 1
     5    2    7 ar
     6    2    3 ar
     7    3    4 ar
     8    3   28 1
     9    4    5 ar
    10    4   29 1
    11    5   10 1
    12    5    6 ar
    13    6    7 ar
    14    6    8 1
    15    7   30 1
    16    8    9 1
    17    8   31 1
    18    8   32 1
    19    9   10 1
    20    9   33 1
    21    9   34 1
    22   10   11 am
    23   11   12 2
    24   11   13 1
    25   13   14 2
    26   13   15 1
    27   15   24 1
    28   15   16 2
    29   16   17 1
    30   16   35 1
    31   17   18 1
    32   17   36 1
    33   18   24 ar
    34   18   19 ar
    35   19   20 ar
    36   19   37 1
    37   20   21 ar
    38   20   38 1
    39   21   22 1
    40   21   23 ar
    41   22   39 1
    42   22   40 1
    43   22   41 1
    44   23   24 ar
    45   23   42 1
@<TRIPOS>Similarity
1.1427
@<TRIPOS>ShapeSim
0.8380
@<TRIPOS>PharmSim
0.3047
# END
# Name:		COC1=CC2=C(C=C1)NC(=O)C(=C2)C3=NOC(=N3)C4=CC=CC=C4
# Created and modified by SHAFTS on Sun Mar 21 16:57:45 2021

# 

@<TRIPOS>MOLECULE
COC1=CC2=C(C=C1)NC(=O)C(=C2)C3=NOC(=N3)C4=CC=CC=C4
   37    40     0
SMALL
USER_CHARGE


@<TRIPOS>ATOM
      1 C1        -11.8144   -0.9204    2.2367 C.3       1 <1>         0.0231
      2 O2        -10.7606   -1.8719    2.0743 O.3       1 <1>        -0.4187
      3 C3         -9.4942   -1.3832    1.9979 C.ar      1 <1>        -0.0019
      4 C4         -9.2743   -0.0105    2.0842 C.ar      1 <1>        -0.0556
      5 C5         -7.9979    0.5006    2.0081 C.ar      1 <1>        -0.0598
      6 C6         -6.9118   -0.3543    1.8437 C.ar      1 <1>        -0.0330
      7 N7         -5.6319    0.1591    1.7676 N.am      1 <1>        -0.2890
      8 C8         -4.5723   -0.6561    1.6082 C.2       1 <1>         0.1487
      9 O9         -3.4499   -0.1870    1.5430 O.2       1 <1>        -0.4509
     10 C10        -4.7649   -2.1055    1.5134 C.2       1 <1>         0.1076
     11 C11        -3.5999   -3.0040    1.3384 C.2       1 <1>         0.0962
     12 N12        -3.6352   -4.3091    1.2348 N.2       1 <1>        -0.2064
     13 O13        -2.5139   -4.7511    1.1009 O.3       1 <1>        -0.2112
     14 C14        -1.6227   -3.7477    1.1053 C.2       1 <1>         0.1777
     15 C15        -0.1560   -3.8722    0.9672 C.ar      1 <1>         0.0198
     16 C16         0.6498   -2.7330    0.9954 C.ar      1 <1>        -0.0600
     17 C17         2.0179   -2.8562    0.8665 C.ar      1 <1>        -0.0894
     18 C18         2.5913   -4.1055    0.7095 C.ar      1 <1>        -0.0974
     19 C19         1.7982   -5.2387    0.6807 C.ar      1 <1>        -0.0926
     20 C20         0.4292   -5.1299    0.8139 C.ar      1 <1>        -0.0641
     21 N21        -2.3060   -2.6282    1.2504 N.2       1 <1>        -0.2988
     22 C22        -6.0285   -2.6218    1.5883 C.2       1 <1>        -0.0140
     23 C23        -7.1277   -1.7424    1.7564 C.ar      1 <1>        -0.0252
     24 C24        -8.4324   -2.2495    1.8409 C.ar      1 <1>        -0.0330
     25 H25       -11.8164   -0.2326    1.3912 H         1 <1>         0.0904
     26 H26       -12.7706   -1.4417    2.2833 H         1 <1>         0.1194
     27 H27       -11.6600   -0.3613    3.1596 H         1 <1>         0.0904
     28 H28       -10.1123    0.6588    2.2114 H         1 <1>         0.1330
     29 H29        -7.8392    1.5668    2.0760 H         1 <1>         0.1363
     30 H30        -5.4950    1.1174    1.8294 H         1 <1>         0.3408
     31 H31         0.2034   -1.7572    1.1175 H         1 <1>         0.1476
     32 H32         2.6426   -1.9754    0.8877 H         1 <1>         0.1234
     33 H33         3.6627   -4.1964    0.6086 H         1 <1>         0.1272
     34 H34         2.2519   -6.2111    0.5579 H         1 <1>         0.1225
     35 H35        -0.1889   -6.0153    0.7912 H         1 <1>         0.1425
     36 H36        -6.1877   -3.6879    1.5199 H         1 <1>         0.1765
     37 H37        -8.6056   -3.3137    1.7781 H         1 <1>         0.1575
@<TRIPOS>BOND
     1    1    2 1
     2    1   25 1
     3    1   26 1
     4    1   27 1
     5    2    3 1
     6    3   24 ar
     7    3    4 ar
     8    4    5 ar
     9    4   28 1
    10    5    6 ar
    11    5   29 1
    12    6   23 ar
    13    6    7 1
    14    7    8 am
    15    7   30 1
    16    8    9 2
    17    8   10 1
    18   10   11 1
    19   10   22 2
    20   11   21 1
    21   11   12 2
    22   12   13 1
    23   13   14 1
    24   14   15 1
    25   14   21 2
    26   15   20 ar
    27   15   16 ar
    28   16   17 ar
    29   16   31 1
    30   17   18 ar
    31   17   32 1
    32   18   19 ar
    33   18   33 1
    34   19   20 ar
    35   19   34 1
    36   20   35 1
    37   22   23 1
    38   22   36 1
    39   23   24 ar
    40   24   37 1
@<TRIPOS>Similarity
1.1376
@<TRIPOS>ShapeSim
0.8196
@<TRIPOS>PharmSim
0.3180
# END
# Name:		NC1=NC2=CC=C(C(F)(F)F)C=C2S1
# Created and modified by SHAFTS on Sun Mar 21 16:57:45 2021

# 

@<TRIPOS>MOLECULE
NC1=NC2=CC=C(C(F)(F)F)C=C2S1
   19    20     0
SMALL
USER_CHARGE


@<TRIPOS>ATOM
      1 N1         -4.2986   -3.5285    1.3617 N.pl3     1 <1>        -0.3533
      2 C2         -5.4658   -2.8102    1.5236 C.2       1 <1>         0.0496
      3 N3         -5.5322   -1.5269    1.6238 N.2       1 <1>        -0.3698
      4 C4         -6.7497   -0.9688    1.7782 C.ar      1 <1>        -0.0222
      5 C5         -7.0854    0.3949    1.9102 C.ar      1 <1>        -0.0415
      6 C6         -8.3948    0.7771    2.0610 C.ar      1 <1>        -0.0552
      7 C7         -9.4079   -0.1694    2.0866 C.ar      1 <1>         0.0367
      8 C8        -10.8413    0.2650    2.2530 C.3       1 <1>         0.3474
      9 F9        -10.8966    1.6588    2.3603 F         1 <1>        -0.1881
     10 F10       -11.5853   -0.1470    1.1422 F         1 <1>        -0.1936
     11 F11       -11.3725   -0.3133    3.4107 F         1 <1>        -0.1936
     12 C12        -9.1036   -1.5070    1.9595 C.ar      1 <1>        -0.0520
     13 C13        -7.7808   -1.9127    1.8053 C.ar      1 <1>         0.0156
     14 S14        -7.0736   -3.5152    1.6148 S.3       1 <1>        -0.0331
     15 H15        -4.3301   -4.4952    1.2894 H         1 <1>         0.2931
     16 H16        -3.4470   -3.0662    1.3163 H         1 <1>         0.2931
     17 H17        -6.3067    1.1431    1.8927 H         1 <1>         0.1578
     18 H18        -8.6384    1.8246    2.1610 H         1 <1>         0.1540
     19 H19        -9.8937   -2.2431    1.9796 H         1 <1>         0.1551
@<TRIPOS>BOND
     1    1    2 1
     2    1   15 1
     3    1   16 1
     4    2   14 1
     5    2    3 2
     6    3    4 1
     7    4   13 ar
     8    4    5 ar
     9    5    6 ar
    10    5   17 1
    11    6    7 ar
    12    6   18 1
    13    7    8 1
    14    7   12 ar
    15    8    9 1
    16    8   10 1
    17    8   11 1
    18   12   13 ar
    19   12   19 1
    20   13   14 1
@<TRIPOS>Similarity
1.1376
@<TRIPOS>ShapeSim
0.6150
@<TRIPOS>PharmSim
0.5226
# END
# Name:		COC(NC1=NN=C(SCC)S1)=O
# Created and modified by SHAFTS on Sun Mar 21 16:57:45 2021

# 

@<TRIPOS>MOLECULE
COC(NC1=NN=C(SCC)S1)=O
   21    21     0
SMALL
USER_CHARGE


@<TRIPOS>ATOM
      1 C1         -8.7098   -0.3626    2.0070 C.3       1 <1>        -0.0535
      2 C2         -7.2882   -0.9015    1.8347 C.3       1 <1>        -0.0075
      3 S3         -7.3383   -2.7063    1.7071 S.3       1 <1>        -0.1498
      4 C4         -5.6197   -3.0477    1.5215 C.2       1 <1>         0.0664
      5 N5         -4.6476   -2.1876    1.4995 N.2       1 <1>        -0.3342
      6 N6         -3.3619   -2.6544    1.3440 N.pl3     1 <1>        -0.2723
      7 C7         -3.2113   -3.9883    1.2251 C.2       1 <1>         0.0885
      8 N8         -2.0760   -4.6689    1.0667 N.2       1 <1>        -0.2967
      9 C9         -0.9123   -4.0205    1.0098 C.2       1 <1>         0.1903
     10 O10        -0.8866   -2.8060    1.1026 O.2       1 <1>        -0.4867
     11 O11         0.2378   -4.7100    0.8493 O.3       1 <1>        -0.3412
     12 C12         1.4473   -3.9509    0.7969 C.3       1 <1>         0.0344
     13 S13        -4.8584   -4.6379    1.3339 S.3       1 <1>        -0.0307
     14 H14        -9.1488   -0.7789    2.9137 H         1 <1>         0.0389
     15 H15        -8.6796    0.7242    2.0838 H         1 <1>         0.0460
     16 H16        -9.3138   -0.6493    1.1461 H         1 <1>         0.0389
     17 H17        -6.8493   -0.4852    0.9280 H         1 <1>         0.0784
     18 H18        -6.6842   -0.6147    2.6956 H         1 <1>         0.0784
     19 H19         2.2938   -4.6250    0.6657 H         1 <1>         0.1167
     20 H20         1.4036   -3.2552   -0.0410 H         1 <1>         0.0878
     21 H21         1.5672   -3.3937    1.7260 H         1 <1>         0.0878
@<TRIPOS>BOND
     1    1    2 1
     2    1   14 1
     3    1   15 1
     4    1   16 1
     5    2    3 1
     6    2   17 1
     7    2   18 1
     8    3    4 1
     9    4   13 1
    10    4    5 2
    11    5    6 1
    12    6    7 1
    13    7    8 2
    14    7   13 1
    15    8    9 1
    16    9   10 2
    17    9   11 1
    18   11   12 1
    19   12   19 1
    20   12   20 1
    21   12   21 1
@<TRIPOS>Similarity
1.1374
@<TRIPOS>ShapeSim
0.7670
@<TRIPOS>PharmSim
0.3704
# END
# Name:		NC1=NC2=CC(C(F)(F)F)=CC=C2S1
# Created and modified by SHAFTS on Sun Mar 21 16:57:45 2021

# 

@<TRIPOS>MOLECULE
NC1=NC2=CC(C(F)(F)F)=CC=C2S1
   19    20     0
SMALL
USER_CHARGE


@<TRIPOS>ATOM
      1 N1         -4.2986   -3.5285    1.3615 N.pl3     1 <1>        -0.3566
      2 C2         -5.4658   -2.8102    1.5235 C.2       1 <1>         0.0462
      3 N3         -5.5322   -1.5269    1.6238 N.2       1 <1>        -0.3738
      4 C4         -6.7497   -0.9688    1.7784 C.ar      1 <1>        -0.0202
      5 C5         -7.0853    0.3949    1.9105 C.ar      1 <1>        -0.0247
      6 C6         -8.3948    0.7771    2.0615 C.ar      1 <1>         0.0467
      7 C7         -8.7346    2.2386    2.2012 C.3       1 <1>         0.3548
      8 F8         -8.9625    2.7875    0.9347 F         1 <1>        -0.1859
      9 F9         -9.8862    2.3768    2.9835 F         1 <1>        -0.1859
     10 F10        -7.6707    2.9081    2.8150 F         1 <1>        -0.1859
     11 C11        -9.4079   -0.1694    2.0861 C.ar      1 <1>        -0.0621
     12 C12        -9.1037   -1.5070    1.9589 C.ar      1 <1>        -0.0671
     13 C13        -7.7808   -1.9127    1.8054 C.ar      1 <1>         0.0128
     14 S14        -7.0737   -3.5152    1.6147 S.3       1 <1>        -0.0331
     15 H15        -4.3301   -4.4952    1.2894 H         1 <1>         0.2907
     16 H16        -3.4471   -3.0661    1.3157 H         1 <1>         0.2907
     17 H17        -6.3066    1.1431    1.8931 H         1 <1>         0.1690
     18 H18       -10.4352    0.1419    2.2054 H         1 <1>         0.1482
     19 H19        -9.8938   -2.2430    1.9781 H         1 <1>         0.1462
@<TRIPOS>BOND
     1    1    2 1
     2    1   15 1
     3    1   16 1
     4    2   14 1
     5    2    3 2
     6    3    4 1
     7    4   13 ar
     8    4    5 ar
     9    5    6 ar
    10    5   17 1
    11    6    7 1
    12    6   11 ar
    13    7    8 1
    14    7    9 1
    15    7   10 1
    16   11   12 ar
    17   11   18 1
    18   12   13 ar
    19   12   19 1
    20   13   14 1
@<TRIPOS>Similarity
1.1372
@<TRIPOS>ShapeSim
0.6147
@<TRIPOS>PharmSim
0.5226
# END
# Name:		O=C(C2=C(N)C(C#N)=C(NCC=C)S2)C1=CC=CS1
# Created and modified by SHAFTS on Sun Mar 21 16:57:45 2021

# 

@<TRIPOS>MOLECULE
O=C(C2=C(N)C(C#N)=C(NCC=C)S2)C1=CC=CS1
   30    31     0
SMALL
USER_CHARGE


@<TRIPOS>ATOM
      1 C1          1.2078    1.5906    0.3079 C.2       1 <1>        -0.1252
      2 C2          1.0338    0.6331    1.1849 C.2       1 <1>        -0.1184
      3 C3         -0.2830   -0.0968    1.2523 C.3       1 <1>        -0.0296
      4 N4         -0.0507   -1.5367    1.1156 N.pl3     1 <1>        -0.3805
      5 C5         -1.1128   -2.4109    1.1472 C.2       1 <1>         0.0587
      6 C6         -1.0023   -3.7801    1.0334 C.2       1 <1>         0.1137
      7 C7          0.2518   -4.4511    0.8665 C.1       1 <1>         0.0531
      8 N8          1.2466   -4.9833    0.7342 N.1       1 <1>        -0.3872
      9 C9         -2.2221   -4.4527    1.0953 C.2       1 <1>        -0.0236
     10 N10        -2.3396   -5.8321    1.0018 N.pl3     1 <1>        -0.3848
     11 C11        -3.2944   -3.6122    1.2582 C.2       1 <1>         0.0942
     12 C12        -4.6414   -4.0250    1.3516 C.2       1 <1>         0.0954
     13 O13        -4.9219   -5.2112    1.2877 O.2       1 <1>        -0.4752
     14 C14        -5.7054   -3.0269    1.5256 C.2       1 <1>         0.0494
     15 C15        -7.0386   -3.3011    1.6337 C.2       1 <1>        -0.0804
     16 C16        -7.8147   -2.1755    1.7893 C.2       1 <1>        -0.1016
     17 C17        -7.1410   -1.0204    1.8079 C.2       1 <1>        -0.0429
     18 S18        -5.4649   -1.2885    1.6356 S.3       1 <1>        -0.1014
     19 S19        -2.7421   -1.9469    1.3400 S.3       1 <1>        -0.0190
     20 H20         2.1515    2.1137    0.2596 H         1 <1>         0.0942
     21 H21         0.4091    1.8541   -0.3696 H         1 <1>         0.0870
     22 H22         1.8340    0.3667    1.8595 H         1 <1>         0.0984
     23 H23        -0.7615    0.1048    2.2106 H         1 <1>         0.1146
     24 H24        -0.9298    0.2453    0.4443 H         1 <1>         0.1074
     25 H25         0.8517   -1.8739    1.0028 H         1 <1>         0.3030
     26 H26        -1.5474   -6.3798    0.8867 H         1 <1>         0.2698
     27 H27        -3.2142   -6.2489    1.0515 H         1 <1>         0.2855
     28 H28        -7.4436   -4.3017    1.6003 H         1 <1>         0.1451
     29 H29        -8.8891   -2.2215    1.8887 H         1 <1>         0.1262
     30 H30        -7.5967   -0.0478    1.9213 H         1 <1>         0.1442
@<TRIPOS>BOND
     1    1    2 2
     2    1   20 1
     3    1   21 1
     4    2    3 1
     5    2   22 1
     6    3    4 1
     7    3   23 1
     8    3   24 1
     9    4    5 1
    10    4   25 1
    11    5   19 1
    12    5    6 2
    13    6    7 1
    14    6    9 1
    15    7    8 3
    16    9   10 1
    17    9   11 2
    18   10   26 1
    19   10   27 1
    20   11   12 1
    21   11   19 1
    22   12   13 2
    23   12   14 1
    24   14   18 1
    25   14   15 2
    26   15   16 1
    27   15   28 1
    28   16   17 2
    29   16   29 1
    30   17   18 1
    31   17   30 1
@<TRIPOS>Similarity
1.1372
@<TRIPOS>ShapeSim
0.7841
@<TRIPOS>PharmSim
0.3531
# END
# Name:		C1=CC=C2C(=C1)C(=O)C=C(O2)C3=CC(=C(C=C3)O)O
# Created and modified by SHAFTS on Sun Mar 21 16:57:45 2021

# 

@<TRIPOS>MOLECULE
C1=CC=C2C(=C1)C(=O)C=C(O2)C3=CC(=C(C=C3)O)O
   29    31     0
SMALL
USER_CHARGE


@<TRIPOS>ATOM
      1 O1         -8.5516   -4.6195    1.6749 O.2       1 <1>        -0.4740
      2 C2         -7.6977   -3.7482    1.6606 C.2       1 <1>         0.0801
      3 C3         -6.3287   -4.0637    1.5090 C.2       1 <1>         0.0219
      4 C4         -5.4063   -3.0620    1.4976 C.2       1 <1>         0.0531
      5 C5         -3.9824   -3.4110    1.3380 C.ar      1 <1>        -0.0150
      6 C6         -3.6005   -4.7476    1.1963 C.ar      1 <1>        -0.0627
      7 C7         -2.2691   -5.0719    1.0473 C.ar      1 <1>        -0.0472
      8 C8         -1.3053   -4.0734    1.0375 C.ar      1 <1>         0.0055
      9 O9          0.0055   -4.3983    0.8903 O.3       1 <1>        -0.4232
     10 C10        -1.6791   -2.7375    1.1778 C.ar      1 <1>         0.0088
     11 O11        -0.7319   -1.7616    1.1669 O.3       1 <1>        -0.4256
     12 C12        -3.0117   -2.4047    1.3222 C.ar      1 <1>        -0.0311
     13 O13        -5.7434   -1.7694    1.6255 O.3       1 <1>        -0.3345
     14 C14        -7.0235   -1.3690    1.7749 C.ar      1 <1>         0.0458
     15 C15        -7.3381   -0.0222    1.9043 C.ar      1 <1>        -0.0444
     16 C16        -8.6528    0.3657    2.0557 C.ar      1 <1>        -0.0858
     17 C17        -9.6702   -0.5764    2.0806 C.ar      1 <1>        -0.0905
     18 C18        -9.3787   -1.9176    1.9537 C.ar      1 <1>        -0.0717
     19 C19        -8.0547   -2.3215    1.7945 C.ar      1 <1>         0.0313
     20 H20        -6.0160   -5.0921    1.4035 H         1 <1>         0.1363
     21 H21        -4.3485   -5.5266    1.2039 H         1 <1>         0.1510
     22 H22        -1.9753   -6.1054    0.9382 H         1 <1>         0.1455
     23 H23         0.3038   -4.4228   -0.0292 H         1 <1>         0.3603
     24 H24        -0.5396   -1.4101    0.2869 H         1 <1>         0.3594
     25 H25        -3.3026   -1.3704    1.4311 H         1 <1>         0.1555
     26 H26        -6.5539    0.7202    1.8868 H         1 <1>         0.1374
     27 H27        -8.8926    1.4139    2.1563 H         1 <1>         0.1412
     28 H28       -10.6951   -0.2579    2.2002 H         1 <1>         0.1253
     29 H29       -10.1718   -2.6504    1.9736 H         1 <1>         0.1473
@<TRIPOS>BOND
     1    1    2 2
     2    2   19 1
     3    2    3 1
     4    3    4 2
     5    3   20 1
     6    4    5 1
     7    4   13 1
     8    5   12 ar
     9    5    6 ar
    10    6    7 ar
    11    6   21 1
    12    7    8 ar
    13    7   22 1
    14    8    9 1
    15    8   10 ar
    16    9   23 1
    17   10   11 1
    18   10   12 ar
    19   11   24 1
    20   12   25 1
    21   13   14 1
    22   14   19 ar
    23   14   15 ar
    24   15   16 ar
    25   15   26 1
    26   16   17 ar
    27   16   27 1
    28   17   18 ar
    29   17   28 1
    30   18   19 ar
    31   18   29 1
@<TRIPOS>Similarity
1.1371
@<TRIPOS>ShapeSim
0.7726
@<TRIPOS>PharmSim
0.3645
# END
# Name:		O=C(C=C(OC1=CC(OC)=C2)C3=CC=C(OC)C=C3)C1=C2OC
# Created and modified by SHAFTS on Sun Mar 21 16:57:45 2021

# 

@<TRIPOS>MOLECULE
O=C(C=C(OC1=CC(OC)=C2)C3=CC=C(OC)C=C3)C1=C2OC
   39    41     0
SMALL
USER_CHARGE


@<TRIPOS>ATOM
      1 C1        -11.0180    2.2344    2.4047 C.3       1 <1>         0.0255
      2 O2        -11.0913    0.8102    2.3134 O.3       1 <1>        -0.4130
      3 C3         -9.9203    0.1418    2.1549 C.ar      1 <1>        -0.0066
      4 C4         -8.7234    0.8455    2.0946 C.ar      1 <1>        -0.0597
      5 C5         -7.5332    0.1714    1.9345 C.ar      1 <1>        -0.0740
      6 C6         -7.5301   -1.2226    1.8325 C.ar      1 <1>        -0.0236
      7 C7         -6.2578   -1.9489    1.6613 C.2       1 <1>         0.0526
      8 C8         -6.2872   -3.3050    1.5594 C.2       1 <1>         0.0220
      9 C9         -5.0767   -4.0188    1.3944 C.2       1 <1>         0.0888
     10 O10        -5.0659   -5.2354    1.2992 O.2       1 <1>        -0.4677
     11 C11        -3.8302   -3.2361    1.3413 C.ar      1 <1>         0.0778
     12 C12        -2.5868   -3.8592    1.1797 C.ar      1 <1>         0.0249
     13 O13        -2.5082   -5.2095    1.0680 O.3       1 <1>        -0.3954
     14 C14        -1.2047   -5.7721    0.9055 C.3       1 <1>         0.0354
     15 C15        -1.4395   -3.0884    1.1344 C.ar      1 <1>        -0.0231
     16 C16        -1.5224   -1.7053    1.2486 C.ar      1 <1>         0.0069
     17 O17        -0.3900   -0.9580    1.2028 O.3       1 <1>        -0.4041
     18 C18         0.8437   -1.6593    1.0360 C.3       1 <1>         0.0309
     19 C19        -2.7506   -1.0817    1.4083 C.ar      1 <1>         0.0018
     20 C20        -3.9112   -1.8375    1.4565 C.ar      1 <1>         0.0646
     21 O21        -5.1153   -1.2459    1.6065 O.3       1 <1>        -0.3251
     22 C22        -8.7362   -1.9264    1.8936 C.ar      1 <1>        -0.0647
     23 C23        -9.9214   -1.2447    2.0593 C.ar      1 <1>        -0.0470
     24 H24       -12.0211    2.6426    2.5291 H         1 <1>         0.1196
     25 H25       -10.4039    2.5125    3.2613 H         1 <1>         0.0907
     26 H26       -10.5733    2.6346    1.4936 H         1 <1>         0.0907
     27 H27        -8.7267    1.9227    2.1732 H         1 <1>         0.1206
     28 H28        -6.6035    0.7192    1.8874 H         1 <1>         0.1461
     29 H29        -7.2281   -3.8333    1.6046 H         1 <1>         0.1366
     30 H30        -0.5873   -5.5130    1.7657 H         1 <1>         0.0931
     31 H31        -1.2840   -6.8566    0.8289 H         1 <1>         0.1293
     32 H32        -0.7484   -5.3761   -0.0017 H         1 <1>         0.0931
     33 H33        -0.4768   -3.5620    1.0103 H         1 <1>         0.1149
     34 H34         1.6674   -0.9457    1.0158 H         1 <1>         0.1280
     35 H35         0.9832   -2.3517    1.8662 H         1 <1>         0.0918
     36 H36         0.8218   -2.2155    0.0988 H         1 <1>         0.0918
     37 H37        -2.8026   -0.0065    1.4959 H         1 <1>         0.1419
     38 H38        -8.7383   -3.0035    1.8152 H         1 <1>         0.1487
     39 H39       -10.8537   -1.7877    2.1066 H         1 <1>         0.1358
@<TRIPOS>BOND
     1    1    2 1
     2    1   24 1
     3    1   25 1
     4    1   26 1
     5    2    3 1
     6    3   23 ar
     7    3    4 ar
     8    4    5 ar
     9    4   27 1
    10    5    6 ar
    11    5   28 1
    12    6    7 1
    13    6   22 ar
    14    7   21 1
    15    7    8 2
    16    8    9 1
    17    8   29 1
    18    9   10 2
    19    9   11 1
    20   11   20 ar
    21   11   12 ar
    22   12   13 1
    23   12   15 ar
    24   13   14 1
    25   14   30 1
    26   14   31 1
    27   14   32 1
    28   15   16 ar
    29   15   33 1
    30   16   17 1
    31   16   19 ar
    32   17   18 1
    33   18   34 1
    34   18   35 1
    35   18   36 1
    36   19   20 ar
    37   19   37 1
    38   20   21 1
    39   22   23 ar
    40   22   38 1
    41   23   39 1
@<TRIPOS>Similarity
1.1370
@<TRIPOS>ShapeSim
0.7407
@<TRIPOS>PharmSim
0.3964
# END
# Name:		C1CC(=O)OC2=CC=CC=C21
# Created and modified by SHAFTS on Sun Mar 21 16:57:45 2021

# 

@<TRIPOS>MOLECULE
C1CC(=O)OC2=CC=CC=C21
   19    20     0
SMALL
USER_CHARGE


@<TRIPOS>ATOM
      1 O1         -4.0812   -3.1116    2.2826 O.2       1 <1>        -0.4148
      2 C2         -5.0649   -2.7236    1.6979 C.2       1 <1>         0.1815
      3 C3         -6.0210   -3.6905    1.0287 C.3       1 <1>         0.0698
      4 C4         -7.4035   -3.4784    1.6540 C.3       1 <1>        -0.0167
      5 C5         -7.6813   -2.0021    1.7869 C.ar      1 <1>        -0.0770
      6 C6         -8.9965   -1.5894    1.9291 C.ar      1 <1>        -0.1012
      7 C7         -9.2976   -0.2481    2.0607 C.ar      1 <1>        -0.1028
      8 C8         -8.2837    0.6918    2.0527 C.ar      1 <1>        -0.0933
      9 C9         -6.9722    0.2876    1.9093 C.ar      1 <1>        -0.0548
     10 C10        -6.6658   -1.0627    1.7718 C.ar      1 <1>         0.0175
     11 O11        -5.3636   -1.4129    1.6166 O.3       1 <1>        -0.3041
     12 H12        -6.0638   -3.4878   -0.0414 H         1 <1>         0.1032
     13 H13        -5.6910   -4.7151    1.1992 H         1 <1>         0.1104
     14 H14        -8.1626   -3.9343    1.0185 H         1 <1>         0.0820
     15 H15        -7.4305   -3.9426    2.6399 H         1 <1>         0.0749
     16 H16        -9.7908   -2.3211    1.9365 H         1 <1>         0.1274
     17 H17       -10.3250    0.0666    2.1696 H         1 <1>         0.1169
     18 H18        -8.5179    1.7407    2.1582 H         1 <1>         0.1341
     19 H19        -6.1805    1.0222    1.9032 H         1 <1>         0.1370
@<TRIPOS>BOND
     1    1    2 2
     2    2   11 1
     3    2    3 1
     4    3    4 1
     5    3   12 1
     6    3   13 1
     7    4    5 1
     8    4   14 1
     9    4   15 1
    10    5   10 ar
    11    5    6 ar
    12    6    7 ar
    13    6   16 1
    14    7    8 ar
    15    7   17 1
    16    8    9 ar
    17    8   18 1
    18    9   10 ar
    19    9   19 1
    20   10   11 1
@<TRIPOS>Similarity
1.1346
@<TRIPOS>ShapeSim
0.6457
@<TRIPOS>PharmSim
0.4888
# END
# Name:		CC(CN(C)C)OC1=NC(=CN=C1C#N)NC2=NC=C3C(=C2)C=CC=C3Cl
# Created and modified by SHAFTS on Sun Mar 21 16:57:45 2021

# 

@<TRIPOS>MOLECULE
CC(CN(C)C)OC1=NC(=CN=C1C#N)NC2=NC=C3C(=C2)C=CC=C3Cl
   47    49     0
SMALL
USER_CHARGE


@<TRIPOS>ATOM
      1 C1         -2.2000   -0.2092    0.0505 C.3       1 <1>        -0.0313
      2 C2         -1.9057   -0.6854    1.4743 C.3       1 <1>         0.0188
      3 H3         -2.8442   -0.8739    1.9957 H         1 <1>         0.1447
      4 C4         -1.1160    0.3925    2.2196 C.3       1 <1>        -0.0687
      5 N5         -0.8335   -0.0647    3.5868 N.4       1 <1>         0.4128
      6 H6         -0.3632   -0.9567    3.5528 H         1 <1>         0.1643
      7 C7          0.0255    0.9162    4.2635 C.3       1 <1>        -0.0900
      8 C8         -2.0948   -0.2040    4.3270 C.3       1 <1>        -0.0912
      9 O9         -1.1381   -1.8896    1.4249 O.3       1 <1>        -0.3631
     10 C10        -1.8257   -3.0566    1.3970 C.ar      1 <1>         0.1557
     11 N11        -3.1504   -3.0476    1.4104 N.ar      1 <1>        -0.2872
     12 C12        -3.8212   -4.1931    1.3831 C.ar      1 <1>         0.0718
     13 N13        -5.2078   -4.1832    1.3967 N.pl3     1 <1>        -0.2817
     14 C14        -5.8944   -2.9809    1.5503 C.ar      1 <1>         0.0208
     15 N15        -5.2102   -1.8396    1.5704 N.ar      1 <1>        -0.3491
     16 C16        -5.7876   -0.6695    1.7109 C.ar      1 <1>        -0.0029
     17 C17        -7.1812   -0.5831    1.8478 C.ar      1 <1>        -0.0141
     18 C18        -7.8382    0.6499    1.9998 C.ar      1 <1>         0.0020
     19 Cl19       -6.9285    2.1283    2.0229 Cl        1 <1>        -0.1342
     20 C20        -9.1947    0.6767    2.1284 C.ar      1 <1>        -0.0642
     21 C21        -9.9428   -0.4991    2.1119 C.ar      1 <1>        -0.0821
     22 C22        -9.3408   -1.7122    1.9665 C.ar      1 <1>        -0.0751
     23 C23        -7.9457   -1.7800    1.8311 C.ar      1 <1>        -0.0546
     24 C24        -7.2691   -3.0003    1.6723 C.ar      1 <1>        -0.0181
     25 C25        -3.1333   -5.4080    1.3402 C.ar      1 <1>         0.0652
     26 N26        -1.8178   -5.4234    1.3271 N.ar      1 <1>        -0.3006
     27 C27        -1.1369   -4.2783    1.3481 C.ar      1 <1>         0.2051
     28 C28         0.2950   -4.2947    1.3338 C.1       1 <1>         0.1286
     29 N29         1.4308   -4.3076    1.3225 N.1       1 <1>        -0.3378
     30 H30        -2.7625   -0.9771   -0.4805 H         1 <1>         0.0548
     31 H31        -2.7855    0.7094    0.0882 H         1 <1>         0.0548
     32 H32        -1.2614   -0.0207   -0.4709 H         1 <1>         0.0548
     33 H33        -0.1775    0.5811    1.6984 H         1 <1>         0.1036
     34 H34        -1.7015    1.3111    2.2574 H         1 <1>         0.1108
     35 H35        -0.4825    1.8799    4.3003 H         1 <1>         0.0767
     36 H36         0.2351    0.5771    5.2779 H         1 <1>         0.0838
     37 H37         0.9614    1.0196    3.7143 H         1 <1>         0.0838
     38 H38        -2.7322   -0.9318    3.8249 H         1 <1>         0.0745
     39 H39        -1.8852   -0.5433    5.3414 H         1 <1>         0.0816
     40 H40        -2.6028    0.7597    4.3638 H         1 <1>         0.0816
     41 H41        -5.6997   -5.0136    1.2993 H         1 <1>         0.3606
     42 H42        -5.1886    0.2291    1.7215 H         1 <1>         0.2220
     43 H43        -9.6984    1.6247    2.2455 H         1 <1>         0.1395
     44 H44       -11.0164   -0.4475    2.2164 H         1 <1>         0.1392
     45 H45        -9.9329   -2.6154    1.9554 H         1 <1>         0.1371
     46 H46        -7.8121   -3.9336    1.6497 H         1 <1>         0.1469
     47 H47        -3.6829   -6.3373    1.3181 H         1 <1>         0.2303
@<TRIPOS>BOND
     1    1    2 1
     2    1   30 1
     3    1   31 1
     4    1   32 1
     5    2    3 1
     6    2    4 1
     7    2    9 1
     8    4    5 1
     9    4   33 1
    10    4   34 1
    11    5    6 1
    12    5    7 1
    13    5    8 1
    14    7   35 1
    15    7   36 1
    16    7   37 1
    17    8   38 1
    18    8   39 1
    19    8   40 1
    20    9   10 1
    21   10   27 ar
    22   10   11 ar
    23   11   12 ar
    24   12   13 1
    25   12   25 ar
    26   13   14 1
    27   13   41 1
    28   14   24 ar
    29   14   15 ar
    30   15   16 ar
    31   16   17 ar
    32   16   42 1
    33   17   23 ar
    34   17   18 ar
    35   18   19 1
    36   18   20 ar
    37   20   21 ar
    38   20   43 1
    39   21   22 ar
    40   21   44 1
    41   22   23 ar
    42   22   45 1
    43   23   24 ar
    44   24   46 1
    45   25   26 ar
    46   25   47 1
    47   26   27 ar
    48   27   28 1
    49   28   29 3
@<TRIPOS>Similarity
1.1341
@<TRIPOS>ShapeSim
0.7425
@<TRIPOS>PharmSim
0.3916
# END
# Name:		CC1=NC=CC2=C1NC3=C2C=CC(=C3)OC
# Created and modified by SHAFTS on Sun Mar 21 16:57:45 2021

# 

@<TRIPOS>MOLECULE
CC1=NC=CC2=C1NC3=C2C=CC(=C3)OC
   28    30     0
SMALL
USER_CHARGE


@<TRIPOS>ATOM
      1 C1        -10.2717    2.3263    2.3590 C.3       1 <1>         0.0270
      2 O2         -8.8682    2.1111    2.1974 O.3       1 <1>        -0.4115
      3 C3         -8.4526    0.8241    2.0658 C.ar      1 <1>        -0.0037
      4 C4         -7.1061    0.5495    1.9120 C.ar      1 <1>        -0.0245
      5 C5         -6.6751   -0.7660    1.7769 C.ar      1 <1>        -0.0454
      6 C6         -7.6187   -1.8056    1.7990 C.ar      1 <1>        -0.0441
      7 C7         -8.9735   -1.5160    1.9557 C.ar      1 <1>        -0.0799
      8 C8         -9.3844   -0.2095    2.0926 C.ar      1 <1>        -0.0607
      9 C9         -6.8629   -3.0568    1.6352 C.ar      1 <1>        -0.0434
     10 C10        -5.5088   -2.6962    1.5241 C.ar      1 <1>        -0.0206
     11 N11        -5.4182   -1.3195    1.6116 N.pl3     1 <1>        -0.3521
     12 C12        -4.5664   -3.7037    1.3585 C.ar      1 <1>        -0.0202
     13 C13        -3.1067   -3.3492    1.2368 C.3       1 <1>        -0.0005
     14 N14        -4.9383   -4.9664    1.3074 N.ar      1 <1>        -0.3917
     15 C15        -6.2023   -5.3383    1.4087 C.ar      1 <1>        -0.0377
     16 C16        -7.2054   -4.4073    1.5746 C.ar      1 <1>        -0.0545
     17 H17       -10.4671    3.3946    2.4524 H         1 <1>         0.1218
     18 H18       -10.8017    1.9347    1.4907 H         1 <1>         0.0929
     19 H19       -10.6168    1.8139    3.2569 H         1 <1>         0.0929
     20 H20        -6.3889    1.3569    1.8963 H         1 <1>         0.1360
     21 H21        -9.6991   -2.3156    1.9724 H         1 <1>         0.1436
     22 H22       -10.4338    0.0149    2.2144 H         1 <1>         0.1171
     23 H23        -4.5916   -0.8141    1.5636 H         1 <1>         0.3316
     24 H24        -2.6524   -3.3354    2.2275 H         1 <1>         0.0771
     25 H25        -2.6032   -4.0905    0.6163 H         1 <1>         0.0771
     26 H26        -3.0089   -2.3650    0.7786 H         1 <1>         0.0699
     27 H27        -6.4533   -6.3877    1.3604 H         1 <1>         0.1945
     28 H28        -8.2365   -4.7179    1.6567 H         1 <1>         0.1391
@<TRIPOS>BOND
     1    1    2 1
     2    1   17 1
     3    1   18 1
     4    1   19 1
     5    2    3 1
     6    3    8 ar
     7    3    4 ar
     8    4    5 ar
     9    4   20 1
    10    5   11 1
    11    5    6 ar
    12    6    7 ar
    13    6    9 1
    14    7    8 ar
    15    7   21 1
    16    8   22 1
    17    9   16 ar
    18    9   10 ar
    19   10   11 1
    20   10   12 ar
    21   11   23 1
    22   12   13 1
    23   12   14 ar
    24   13   24 1
    25   13   25 1
    26   13   26 1
    27   14   15 ar
    28   15   16 ar
    29   15   27 1
    30   16   28 1
@<TRIPOS>Similarity
1.1329
@<TRIPOS>ShapeSim
0.6869
@<TRIPOS>PharmSim
0.4461
# END
# Name:		CC1=NC=CC2=C1NC3=C2C=CC(=C3)OC
# Created and modified by SHAFTS on Sun Mar 21 16:57:45 2021

# 

@<TRIPOS>MOLECULE
CC1=NC=CC2=C1NC3=C2C=CC(=C3)OC
   28    30     0
SMALL
USER_CHARGE


@<TRIPOS>ATOM
      1 C1        -10.2717    2.3263    2.3590 C.3       1 <1>         0.0270
      2 O2         -8.8682    2.1111    2.1974 O.3       1 <1>        -0.4115
      3 C3         -8.4526    0.8241    2.0658 C.ar      1 <1>        -0.0037
      4 C4         -7.1061    0.5495    1.9120 C.ar      1 <1>        -0.0245
      5 C5         -6.6751   -0.7660    1.7769 C.ar      1 <1>        -0.0454
      6 C6         -7.6187   -1.8056    1.7990 C.ar      1 <1>        -0.0441
      7 C7         -8.9735   -1.5160    1.9557 C.ar      1 <1>        -0.0799
      8 C8         -9.3844   -0.2095    2.0926 C.ar      1 <1>        -0.0607
      9 C9         -6.8629   -3.0568    1.6352 C.ar      1 <1>        -0.0434
     10 C10        -5.5088   -2.6962    1.5241 C.ar      1 <1>        -0.0206
     11 N11        -5.4182   -1.3195    1.6116 N.pl3     1 <1>        -0.3521
     12 C12        -4.5664   -3.7037    1.3585 C.ar      1 <1>        -0.0202
     13 C13        -3.1067   -3.3492    1.2368 C.3       1 <1>        -0.0005
     14 N14        -4.9383   -4.9664    1.3074 N.ar      1 <1>        -0.3917
     15 C15        -6.2023   -5.3383    1.4087 C.ar      1 <1>        -0.0377
     16 C16        -7.2054   -4.4073    1.5746 C.ar      1 <1>        -0.0545
     17 H17       -10.4671    3.3946    2.4524 H         1 <1>         0.1218
     18 H18       -10.8017    1.9347    1.4907 H         1 <1>         0.0929
     19 H19       -10.6168    1.8139    3.2569 H         1 <1>         0.0929
     20 H20        -6.3889    1.3569    1.8963 H         1 <1>         0.1360
     21 H21        -9.6991   -2.3156    1.9724 H         1 <1>         0.1436
     22 H22       -10.4338    0.0149    2.2144 H         1 <1>         0.1171
     23 H23        -4.5916   -0.8141    1.5636 H         1 <1>         0.3316
     24 H24        -2.6524   -3.3354    2.2275 H         1 <1>         0.0771
     25 H25        -2.6032   -4.0905    0.6163 H         1 <1>         0.0771
     26 H26        -3.0089   -2.3650    0.7786 H         1 <1>         0.0699
     27 H27        -6.4533   -6.3877    1.3604 H         1 <1>         0.1945
     28 H28        -8.2365   -4.7179    1.6567 H         1 <1>         0.1391
@<TRIPOS>BOND
     1    1    2 1
     2    1   17 1
     3    1   18 1
     4    1   19 1
     5    2    3 1
     6    3    8 ar
     7    3    4 ar
     8    4    5 ar
     9    4   20 1
    10    5   11 1
    11    5    6 ar
    12    6    7 ar
    13    6    9 1
    14    7    8 ar
    15    7   21 1
    16    8   22 1
    17    9   16 ar
    18    9   10 ar
    19   10   11 1
    20   10   12 ar
    21   11   23 1
    22   12   13 1
    23   12   14 ar
    24   13   24 1
    25   13   25 1
    26   13   26 1
    27   14   15 ar
    28   15   16 ar
    29   15   27 1
    30   16   28 1
@<TRIPOS>Similarity
1.1329
@<TRIPOS>ShapeSim
0.6869
@<TRIPOS>PharmSim
0.4461
# END
# Name:		O=C(C1=[N+]2C=CC3=C1NC4=CC=CC=C43)C5=C2C=CC=C5
# Created and modified by SHAFTS on Sun Mar 21 16:57:45 2021

# 

@<TRIPOS>MOLECULE
O=C(C1=[N+]2C=CC3=C1NC4=CC=CC=C43)C5=C2C=CC=C5
   32    36     0
SMALL
USER_CHARGE


@<TRIPOS>ATOM
      1 O1         -4.7307   -5.4773    1.2496 O.2       1 <1>        -0.3859
      2 C2         -3.9675   -4.5322    1.2567 C.2       1 <1>         0.1835
      3 C3         -2.4922   -4.5571    1.1221 C.ar      1 <1>         0.0550
      4 C4         -1.5653   -5.5758    0.9577 C.ar      1 <1>        -0.0445
      5 C5         -0.2175   -5.2679    0.8616 C.ar      1 <1>        -0.0613
      6 C6          0.2000   -3.9525    0.9292 C.ar      1 <1>        -0.0601
      7 C7         -0.7178   -2.9281    1.0933 C.ar      1 <1>        -0.0385
      8 C8         -2.0739   -3.2189    1.1915 C.ar      1 <1>         0.0174
      9 N9         -3.1721   -2.3886    1.3558 N.ar      1 <1>        -0.3151
     10 C10        -4.3048   -3.0919    1.3957 C.ar      1 <1>         0.1441
     11 C11        -5.5406   -2.4581    1.5558 C.ar      1 <1>         0.0431
     12 C12        -5.5674   -1.0506    1.6750 C.ar      1 <1>         0.0073
     13 C13        -4.3649   -0.3562    1.6284 C.ar      1 <1>         0.0022
     14 C14        -3.1871   -1.0601    1.4631 C.ar      1 <1>         0.0315
     15 C15        -6.9795   -0.6710    1.8295 C.ar      1 <1>        -0.0258
     16 C16        -7.7156   -1.8662    1.7941 C.ar      1 <1>        -0.0385
     17 C17        -9.0999   -1.8165    1.9188 C.ar      1 <1>        -0.0531
     18 C18        -9.7368   -0.6037    2.0751 C.ar      1 <1>        -0.0752
     19 C19        -9.0088    0.5757    2.1098 C.ar      1 <1>        -0.0795
     20 C20        -7.6364    0.5478    1.9885 C.ar      1 <1>        -0.0707
     21 N21        -6.8325   -2.9210    1.6296 N.pl3     1 <1>        -0.3285
     22 H22        -1.8923   -6.6038    0.9051 H         1 <1>         0.1727
     23 H23         0.5080   -6.0577    0.7338 H         1 <1>         0.1600
     24 H24         1.2521   -3.7209    0.8539 H         1 <1>         0.1628
     25 H25        -0.3801   -1.9036    1.1453 H         1 <1>         0.1686
     26 H26        -4.3510    0.7201    1.7166 H         1 <1>         0.2084
     27 H27        -2.2527   -0.5197    1.4273 H         1 <1>         0.2542
     28 H28        -9.6768   -2.7291    1.8927 H         1 <1>         0.1400
     29 H29       -10.8121   -0.5722    2.1709 H         1 <1>         0.1553
     30 H30        -9.5191    1.5195    2.2327 H         1 <1>         0.1388
     31 H31        -7.0715    1.4678    2.0158 H         1 <1>         0.1556
     32 H32        -7.0897   -3.8546    1.5745 H         1 <1>         0.3558
@<TRIPOS>BOND
     1    1    2 2
     2    2   10 1
     3    2    3 1
     4    3    8 ar
     5    3    4 ar
     6    4    5 ar
     7    4   22 1
     8    5    6 ar
     9    5   23 1
    10    6    7 ar
    11    6   24 1
    12    7    8 ar
    13    7   25 1
    14    8    9 1
    15    9   14 ar
    16    9   10 ar
    17   10   11 ar
    18   11   21 1
    19   11   12 ar
    20   12   13 ar
    21   12   15 1
    22   13   14 ar
    23   13   26 1
    24   14   27 1
    25   15   20 ar
    26   15   16 ar
    27   16   17 ar
    28   16   21 1
    29   17   18 ar
    30   17   28 1
    31   18   19 ar
    32   18   29 1
    33   19   20 ar
    34   19   30 1
    35   20   31 1
    36   21   32 1
@<TRIPOS>Similarity
1.1328
@<TRIPOS>ShapeSim
0.7815
@<TRIPOS>PharmSim
0.3513
# END
# Name:		FC1=C2C(NC(C(C3=NC4=C(C=C(N5CCN(C)CC5)C=C4)N3)=C2N)=O)=CC=C1
# Created and modified by SHAFTS on Sun Mar 21 16:57:45 2021

# 

@<TRIPOS>MOLECULE
FC1=C2C(NC(C(C3=NC4=C(C=C(N5CCN(C)CC5)C=C4)N3)=C2N)=O)=CC=C1
   51    55     0
SMALL
USER_CHARGE


@<TRIPOS>ATOM
      1 C1        -12.0658    4.8833    1.3294 C.3       1 <1>        -0.0914
      2 N2        -11.3761    3.5925    1.2029 N.4       1 <1>         0.4079
      3 H3        -11.7435    3.0917    0.4077 H         1 <1>         0.1593
      4 C4        -11.5913    2.8012    2.4215 C.3       1 <1>        -0.1104
      5 C5        -10.8887    1.4489    2.2825 C.3       1 <1>        -0.1721
      6 N6         -9.4514    1.6666    2.0665 N.3       1 <1>         0.3577
      7 C7         -8.7659    0.4494    1.9884 C.ar      1 <1>        -0.2264
      8 C8         -9.4661   -0.7488    2.1083 C.ar      1 <1>        -0.1071
      9 C9         -8.8023   -1.9553    2.0331 C.ar      1 <1>        -0.0693
     10 C10        -7.4296   -1.9793    1.8369 C.ar      1 <1>        -0.0296
     11 N11        -6.4961   -2.9970    1.7204 N.pl3     1 <1>        -0.3194
     12 C12        -5.2742   -2.4055    1.5359 C.2       1 <1>         0.0377
     13 C13        -4.0015   -3.1254    1.3656 C.2       1 <1>         0.1243
     14 C14        -2.7965   -2.4200    1.3144 C.2       1 <1>         0.0031
     15 N15        -2.7747   -1.0505    1.4216 N.pl3     1 <1>        -0.3702
     16 C16        -1.5549   -3.1832    1.1433 C.ar      1 <1>         0.0605
     17 C17        -0.3142   -2.5378    1.0846 C.ar      1 <1>         0.1027
     18 F18        -0.2422   -1.1925    1.1855 F         1 <1>        -0.2449
     19 C19         0.8351   -3.2848    0.9235 C.ar      1 <1>        -0.0323
     20 C20         0.7639   -4.6654    0.8197 C.ar      1 <1>        -0.0718
     21 C21        -0.4517   -5.3146    0.8754 C.ar      1 <1>        -0.0461
     22 C22        -1.6232   -4.5844    1.0382 C.ar      1 <1>        -0.0061
     23 N23        -2.8470   -5.2216    1.0966 N.am      1 <1>        -0.2823
     24 C24        -3.9906   -4.5361    1.2587 C.2       1 <1>         0.1273
     25 O25        -5.0463   -5.1435    1.3042 O.2       1 <1>        -0.4934
     26 N26        -5.4099   -1.0988    1.5337 N.2       1 <1>        -0.3719
     27 C27        -6.7145   -0.7752    1.7147 C.ar      1 <1>        -0.0167
     28 C28        -7.3979    0.4422    1.7869 C.ar      1 <1>        -0.0655
     29 C29        -9.2215    2.4788    0.8632 C.3       1 <1>        -0.1721
     30 C30        -9.9377    3.8226    1.0144 C.3       1 <1>        -0.1104
     31 H31       -11.6691    5.4245    2.1885 H         1 <1>         0.0764
     32 H32       -11.9067    5.4705    0.4249 H         1 <1>         0.0764
     33 H33       -13.1334    4.7128    1.4688 H         1 <1>         0.0764
     34 H34       -11.1831    3.3363    3.2789 H         1 <1>         0.1009
     35 H35       -12.6598    2.6422    2.5675 H         1 <1>         0.1009
     36 H36       -11.0357    0.8674    3.1926 H         1 <1>         0.0872
     37 H37       -11.3062    0.9078    1.4334 H         1 <1>         0.0441
     38 H38       -10.5351   -0.7329    2.2614 H         1 <1>         0.1174
     39 H39        -9.3509   -2.8808    2.1271 H         1 <1>         0.1378
     40 H40        -6.6744   -3.9496    1.7621 H         1 <1>         0.3587
     41 H41        -3.5212   -0.5840    1.8290 H         1 <1>         0.2991
     42 H42        -2.0128   -0.5501    1.0898 H         1 <1>         0.2834
     43 H43         1.7946   -2.7912    0.8776 H         1 <1>         0.1382
     44 H44         1.6703   -5.2389    0.6935 H         1 <1>         0.1576
     45 H45        -0.4933   -6.3906    0.7930 H         1 <1>         0.1416
     46 H46        -2.8812   -6.1881    1.0222 H         1 <1>         0.3444
     47 H47        -6.8595    1.3732    1.6883 H         1 <1>         0.1448
     48 H48        -8.1521    2.6487    0.7380 H         1 <1>         0.0872
     49 H49        -9.6115    1.9546   -0.0093 H         1 <1>         0.0441
     50 H50        -9.7805    4.4211    0.1170 H         1 <1>         0.1009
     51 H51        -9.5379    4.3523    1.8790 H         1 <1>         0.1009
@<TRIPOS>BOND
     1    1    2 1
     2    1   31 1
     3    1   32 1
     4    1   33 1
     5    2    3 1
     6    2   30 1
     7    2    4 1
     8    4    5 1
     9    4   34 1
    10    4   35 1
    11    5    6 1
    12    5   36 1
    13    5   37 1
    14    6    7 1
    15    6   29 1
    16    7   28 ar
    17    7    8 ar
    18    8    9 ar
    19    8   38 1
    20    9   10 ar
    21    9   39 1
    22   10   27 ar
    23   10   11 1
    24   11   12 1
    25   11   40 1
    26   12   13 1
    27   12   26 2
    28   13   24 1
    29   13   14 2
    30   14   15 1
    31   14   16 1
    32   15   41 1
    33   15   42 1
    34   16   22 ar
    35   16   17 ar
    36   17   18 1
    37   17   19 ar
    38   19   20 ar
    39   19   43 1
    40   20   21 ar
    41   20   44 1
    42   21   22 ar
    43   21   45 1
    44   22   23 1
    45   23   24 am
    46   23   46 1
    47   24   25 2
    48   26   27 1
    49   27   28 ar
    50   28   47 1
    51   29   30 1
    52   29   48 1
    53   29   49 1
    54   30   50 1
    55   30   51 1
@<TRIPOS>Similarity
1.1314
@<TRIPOS>ShapeSim
0.7658
@<TRIPOS>PharmSim
0.3656
# END
# Name:		C1=CC=C(C=C1)C2=CC(=O)C3=C(O2)C=C(C=C3)O
# Created and modified by SHAFTS on Sun Mar 21 16:57:45 2021

# 

@<TRIPOS>MOLECULE
C1=CC=C(C=C1)C2=CC(=O)C3=C(O2)C=C(C=C3)O
   27    29     0
SMALL
USER_CHARGE


@<TRIPOS>ATOM
      1 O1         -8.8733   -4.2728    1.7289 O.2       1 <1>        -0.5098
      2 C2         -7.9144   -3.5191    1.6964 C.2       1 <1>         0.0440
      3 C3         -6.5969   -4.0110    1.5363 C.2       1 <1>         0.0074
      4 C4         -5.5546   -3.1387    1.5050 C.2       1 <1>         0.0451
      5 C5         -4.1878   -3.6717    1.3374 C.ar      1 <1>        -0.0281
      6 C6         -3.9821   -5.0471    1.2084 C.ar      1 <1>        -0.0789
      7 C7         -2.7027   -5.5381    1.0515 C.ar      1 <1>        -0.0995
      8 C8         -1.6244   -4.6714    1.0218 C.ar      1 <1>        -0.1053
      9 C9         -1.8209   -3.3077    1.1495 C.ar      1 <1>        -0.0976
     10 C10        -3.0953   -2.8025    1.3012 C.ar      1 <1>        -0.0751
     11 O11        -5.7200   -1.8118    1.6202 O.3       1 <1>        -0.3432
     12 C12        -6.9356   -1.2475    1.7762 C.ar      1 <1>         0.0209
     13 C13        -7.0724    0.1280    1.8919 C.ar      1 <1>        -0.0316
     14 C14        -8.3319    0.6826    2.0508 C.ar      1 <1>        -0.0724
     15 O15        -8.4652    2.0288    2.1640 O.3       1 <1>        -0.5760
     16 C16        -9.4626   -0.1295    2.0950 C.ar      1 <1>        -0.0722
     17 C17        -9.3435   -1.4859    1.9828 C.ar      1 <1>        -0.0951
     18 C18        -8.0829   -2.0586    1.8161 C.ar      1 <1>        -0.0026
     19 H19        -6.4209   -5.0722    1.4401 H         1 <1>         0.1246
     20 H20        -4.8229   -5.7246    1.2317 H         1 <1>         0.1306
     21 H21        -2.5422   -6.6015    0.9521 H         1 <1>         0.1211
     22 H22        -0.6248   -5.0613    0.8987 H         1 <1>         0.1143
     23 H23        -0.9747   -2.6370    1.1261 H         1 <1>         0.1215
     24 H24        -3.2473   -1.7378    1.4002 H         1 <1>         0.1408
     25 H25        -6.2003    0.7641    1.8586 H         1 <1>         0.1019
     26 H26       -10.4388    0.3156    2.2190 H         1 <1>         0.0918
     27 H27       -10.2229   -2.1120    2.0179 H         1 <1>         0.1234
@<TRIPOS>BOND
     1    1    2 2
     2    2   18 1
     3    2    3 1
     4    3    4 2
     5    3   19 1
     6    4    5 1
     7    4   11 1
     8    5   10 ar
     9    5    6 ar
    10    6    7 ar
    11    6   20 1
    12    7    8 ar
    13    7   21 1
    14    8    9 ar
    15    8   22 1
    16    9   10 ar
    17    9   23 1
    18   10   24 1
    19   11   12 1
    20   12   18 ar
    21   12   13 ar
    22   13   14 ar
    23   13   25 1
    24   14   15 1
    25   14   16 ar
    26   16   17 ar
    27   16   26 1
    28   17   18 ar
    29   17   27 1
@<TRIPOS>Similarity
1.1292
@<TRIPOS>ShapeSim
0.7367
@<TRIPOS>PharmSim
0.3925
# END
# Name:		CC1=CC(=O)N(C1=O)CCC2=CNC3=CC=CC=C32
# Created and modified by SHAFTS on Sun Mar 21 16:57:45 2021

# 

@<TRIPOS>MOLECULE
CC1=CC(=O)N(C1=O)CCC2=CNC3=CC=CC=C32
   33    35     0
SMALL
USER_CHARGE


@<TRIPOS>ATOM
      1 C1          0.7695   -4.0612   -0.3099 C.3       1 <1>        -0.0098
      2 C2         -0.3556   -3.1545    0.1184 C.2       1 <1>         0.0310
      3 C3         -0.4045   -1.8193   -0.0189 C.2       1 <1>         0.0453
      4 C4         -1.6995   -1.3787    0.5456 C.2       1 <1>         0.1497
      5 O5         -2.0984   -0.2333    0.5976 O.2       1 <1>        -0.4299
      6 N6         -2.3597   -2.4628    0.9908 N.am      1 <1>        -0.2448
      7 C7         -3.6830   -2.4468    1.6191 C.3       1 <1>         0.0176
      8 C8         -4.7603   -2.5968    0.5431 C.3       1 <1>        -0.0198
      9 C9         -6.1216   -2.5804    1.1894 C.2       1 <1>        -0.0923
     10 C10        -6.8413   -3.6503    1.5625 C.2       1 <1>        -0.0765
     11 N11        -8.0266   -3.2461    2.1139 N.pl3     1 <1>        -0.3748
     12 C12        -8.1004   -1.8711    2.1089 C.ar      1 <1>        -0.0715
     13 C13        -9.0614   -0.9622    2.5387 C.ar      1 <1>        -0.0798
     14 C14        -8.8383    0.3897    2.3929 C.ar      1 <1>        -0.1002
     15 C15        -7.6628    0.8555    1.8209 C.ar      1 <1>        -0.1033
     16 C16        -6.7051   -0.0199    1.3917 C.ar      1 <1>        -0.0937
     17 C17        -6.9076   -1.3937    1.5355 C.ar      1 <1>        -0.0785
     18 C18        -1.6216   -3.5646    0.7652 C.2       1 <1>         0.1534
     19 O19        -1.9373   -4.7015    1.0508 O.2       1 <1>        -0.4265
     20 H20         0.6032   -4.3863   -1.3369 H         1 <1>         0.0765
     21 H21         1.7146   -3.5216   -0.2481 H         1 <1>         0.0765
     22 H22         0.8043   -4.9314    0.3456 H         1 <1>         0.0693
     23 H23         0.3551   -1.1886   -0.4566 H         1 <1>         0.1826
     24 H24        -3.7591   -3.2722    2.3271 H         1 <1>         0.1282
     25 H25        -3.8240   -1.5026    2.1453 H         1 <1>         0.1282
     26 H26        -4.6842   -1.7716   -0.1648 H         1 <1>         0.0788
     27 H27        -4.6193   -3.5410    0.0170 H         1 <1>         0.0788
     28 H28        -6.5310   -4.6780    1.4446 H         1 <1>         0.1896
     29 H29        -8.7126   -3.8398    2.4572 H         1 <1>         0.3292
     30 H30        -9.9796   -1.3148    2.9849 H         1 <1>         0.1188
     31 H31        -9.5859    1.0940    2.7270 H         1 <1>         0.1238
     32 H32        -7.5036    1.9183    1.7135 H         1 <1>         0.1095
     33 H33        -5.7928    0.3498    0.9475 H         1 <1>         0.1248
@<TRIPOS>BOND
     1    1    2 1
     2    1   20 1
     3    1   21 1
     4    1   22 1
     5    2   18 1
     6    2    3 2
     7    3    4 1
     8    3   23 1
     9    4    5 2
    10    4    6 am
    11    6    7 1
    12    6   18 am
    13    7    8 1
    14    7   24 1
    15    7   25 1
    16    8    9 1
    17    8   26 1
    18    8   27 1
    19    9   17 1
    20    9   10 2
    21   10   11 1
    22   10   28 1
    23   11   12 1
    24   11   29 1
    25   12   17 ar
    26   12   13 ar
    27   13   14 ar
    28   13   30 1
    29   14   15 ar
    30   14   31 1
    31   15   16 ar
    32   15   32 1
    33   16   17 ar
    34   16   33 1
    35   18   19 2
@<TRIPOS>Similarity
1.1287
@<TRIPOS>ShapeSim
0.7034
@<TRIPOS>PharmSim
0.4253
# END
# Name:		COC1=C(C=C(C=C1)C2=CC(=O)C3=C(O2)C=C(C(=C3O)OC)O)OC
# Created and modified by SHAFTS on Sun Mar 21 16:57:45 2021

# 

@<TRIPOS>MOLECULE
COC1=C(C=C(C=C1)C2=CC(=O)C3=C(O2)C=C(C(=C3O)OC)O)OC
   40    42     0
SMALL
USER_CHARGE


@<TRIPOS>ATOM
      1 C1        -10.3457   -2.2805    2.0225 C.3       1 <1>         0.0261
      2 O2         -9.4177   -1.1938    2.0087 O.3       1 <1>        -0.4075
      3 C3         -8.1037   -1.5069    1.8645 C.ar      1 <1>         0.0339
      4 C4         -7.7185   -2.8335    1.7332 C.ar      1 <1>        -0.0544
      5 C5         -6.3864   -3.1566    1.5861 C.ar      1 <1>        -0.0739
      6 C6         -5.4207   -2.1472    1.5690 C.ar      1 <1>        -0.0241
      7 C7         -3.9949   -2.4908    1.4112 C.2       1 <1>         0.0481
      8 C8         -3.6482   -3.7995    1.2788 C.2       1 <1>         0.0135
      9 C9         -2.2856   -4.1483    1.1264 C.2       1 <1>         0.0620
     10 O10        -1.9390   -5.3122    1.0046 O.2       1 <1>        -0.4951
     11 C11        -1.3018   -3.0523    1.1198 C.ar      1 <1>         0.0456
     12 C12         0.0670   -3.3061    0.9737 C.ar      1 <1>         0.0203
     13 O13         0.5157   -4.5806    0.8340 O.3       1 <1>        -0.4192
     14 C14         0.9606   -2.2469    0.9723 C.ar      1 <1>         0.0637
     15 O15         2.2941   -2.4826    0.8309 O.3       1 <1>        -0.4275
     16 C16         2.8125   -2.4979   -0.5007 C.3       1 <1>         0.0093
     17 C17         0.4960   -0.9409    1.1150 C.ar      1 <1>        -0.0155
     18 O18         1.3787    0.0915    1.1116 O.3       1 <1>        -0.5489
     19 C19        -0.8586   -0.6858    1.2599 C.ar      1 <1>        -0.0203
     20 C20        -1.7663   -1.7331    1.2641 C.ar      1 <1>         0.0322
     21 O21        -3.0897   -1.4996    1.3984 O.3       1 <1>        -0.3403
     22 C22        -5.8088   -0.8106    1.7012 C.ar      1 <1>        -0.0309
     23 C23        -7.1458   -0.4939    1.8430 C.ar      1 <1>         0.0383
     24 O24        -7.5269    0.8052    1.9714 O.3       1 <1>        -0.4103
     25 C25        -6.4917    1.7900    1.9512 C.3       1 <1>         0.0240
     26 H26       -10.1111   -2.9482    2.8514 H         1 <1>         0.0911
     27 H27       -11.3573   -1.8928    2.1434 H         1 <1>         0.1200
     28 H28       -10.2767   -2.8291    1.0832 H         1 <1>         0.0911
     29 H29        -8.4641   -3.6147    1.7466 H         1 <1>         0.1254
     30 H30        -6.0894   -4.1900    1.4844 H         1 <1>         0.1393
     31 H31        -4.4079   -4.5670    1.2902 H         1 <1>         0.1278
     32 H32         0.5647   -4.8819   -0.0835 H         1 <1>         0.3542
     33 H33         2.3146   -3.2787   -1.0755 H         1 <1>         0.0701
     34 H34         2.6345   -1.5309   -0.9711 H         1 <1>         0.0773
     35 H35         3.8840   -2.6958   -0.4711 H         1 <1>         0.1062
     36 H36        -1.2072    0.3304    1.3701 H         1 <1>         0.1032
     37 H37        -5.0654   -0.0273    1.6889 H         1 <1>         0.1449
     38 H38        -5.9556    1.7344    1.0039 H         1 <1>         0.0905
     39 H39        -6.9311    2.7814    2.0625 H         1 <1>         0.1194
     40 H40        -5.7987    1.6056    2.7723 H         1 <1>         0.0905
@<TRIPOS>BOND
     1    1    2 1
     2    1   26 1
     3    1   27 1
     4    1   28 1
     5    2    3 1
     6    3   23 ar
     7    3    4 ar
     8    4    5 ar
     9    4   29 1
    10    5    6 ar
    11    5   30 1
    12    6    7 1
    13    6   22 ar
    14    7   21 1
    15    7    8 2
    16    8    9 1
    17    8   31 1
    18    9   10 2
    19    9   11 1
    20   11   20 ar
    21   11   12 ar
    22   12   13 1
    23   12   14 ar
    24   13   32 1
    25   14   15 1
    26   14   17 ar
    27   15   16 1
    28   16   33 1
    29   16   34 1
    30   16   35 1
    31   17   18 1
    32   17   19 ar
    33   19   20 ar
    34   19   36 1
    35   20   21 1
    36   22   23 ar
    37   22   37 1
    38   23   24 1
    39   24   25 1
    40   25   38 1
    41   25   39 1
    42   25   40 1
@<TRIPOS>Similarity
1.1286
@<TRIPOS>ShapeSim
0.8181
@<TRIPOS>PharmSim
0.3105
# END
# Name:		O=C(NC1=NC=C([N+]([O-])=O)S1)C2=CC=CC=C2OC(C)=O
# Created and modified by SHAFTS on Sun Mar 21 16:57:45 2021

# 

@<TRIPOS>MOLECULE
O=C(NC1=NC=C([N+]([O-])=O)S1)C2=CC=CC=C2OC(C)=O
   30    31     0
SMALL
USER_CHARGE


@<TRIPOS>ATOM
      1 C1         -7.0525   -7.0161    2.6059 C.3       1 <1>         0.0761
      2 C2         -6.8875   -5.5183    2.6268 C.2       1 <1>         0.1699
      3 O3         -6.6246   -4.9539    3.6623 O.2       1 <1>        -0.4564
      4 O4         -7.0326   -4.8108    1.4945 O.3       1 <1>        -0.2924
      5 C5         -6.9756   -3.4590    1.6010 C.ar      1 <1>         0.0628
      6 C6         -8.1393   -2.7240    1.7657 C.ar      1 <1>        -0.0416
      7 C7         -8.0799   -1.3481    1.8739 C.ar      1 <1>        -0.0830
      8 C8         -6.8610   -0.6931    1.8190 C.ar      1 <1>        -0.0881
      9 C9         -5.6939   -1.4084    1.6552 C.ar      1 <1>        -0.0604
     10 C10        -5.7393   -2.8003    1.5507 C.ar      1 <1>         0.0743
     11 C11        -4.4940   -3.5722    1.3758 C.2       1 <1>         0.1591
     12 O12        -4.5375   -4.7839    1.2852 O.2       1 <1>        -0.4208
     13 N13        -3.3084   -2.9341    1.3164 N.am      1 <1>        -0.2404
     14 C14        -2.1361   -3.6607    1.1516 C.2       1 <1>         0.1285
     15 N15        -2.0716   -4.9506    1.0393 N.2       1 <1>        -0.3336
     16 C16        -0.8711   -5.4778    0.8878 C.2       1 <1>         0.0314
     17 C17         0.1261   -4.5912    0.8712 C.2       1 <1>         0.1889
     18 N18         1.5650   -4.9037    0.7155 N.pl3     1 <1>         0.0192
     19 O19         1.9267   -6.0597    0.5871 O.2       1 <1>        -0.2228
     20 O20         2.3869   -4.0048    0.7158 O.2       1 <1>        -0.2283
     21 S21        -0.5690   -2.9835    1.0600 S.3       1 <1>         0.0636
     22 H22        -8.0954   -7.2695    2.7967 H         1 <1>         0.1114
     23 H23        -6.7581   -7.4005    1.6293 H         1 <1>         0.1042
     24 H24        -6.4235   -7.4618    3.3764 H         1 <1>         0.1114
     25 H25        -9.0936   -3.2277    1.8091 H         1 <1>         0.1396
     26 H26        -8.9894   -0.7799    2.0017 H         1 <1>         0.1403
     27 H27        -6.8245    0.3828    1.9045 H         1 <1>         0.1311
     28 H28        -4.7455   -0.8935    1.6122 H         1 <1>         0.1343
     29 H29        -3.2738   -1.9673    1.3886 H         1 <1>         0.3582
     30 H30        -0.7089   -6.5406    0.7858 H         1 <1>         0.2634
@<TRIPOS>BOND
     1    1    2 1
     2    1   22 1
     3    1   23 1
     4    1   24 1
     5    2    3 2
     6    2    4 1
     7    4    5 1
     8    5   10 ar
     9    5    6 ar
    10    6    7 ar
    11    6   25 1
    12    7    8 ar
    13    7   26 1
    14    8    9 ar
    15    8   27 1
    16    9   10 ar
    17    9   28 1
    18   10   11 1
    19   11   12 2
    20   11   13 am
    21   13   14 1
    22   13   29 1
    23   14   21 1
    24   14   15 2
    25   15   16 1
    26   16   17 2
    27   16   30 1
    28   17   18 1
    29   17   21 1
    30   18   19 2
    31   18   20 2
@<TRIPOS>Similarity
1.1248
@<TRIPOS>ShapeSim
0.7465
@<TRIPOS>PharmSim
0.3783
# END
# Name:		COC1=CC2=C(C(=C1)OC)C(=O)C(=C(O2)C3=CC=CC=C3)OC
# Created and modified by SHAFTS on Sun Mar 21 16:57:45 2021

# 

@<TRIPOS>MOLECULE
COC1=CC2=C(C(=C1)OC)C(=O)C(=C(O2)C3=CC=CC=C3)OC
   39    41     0
SMALL
USER_CHARGE


@<TRIPOS>ATOM
      1 C1          1.1200   -1.3751    1.0179 C.3       1 <1>         0.0309
      2 O2         -0.1237   -0.6926    1.1899 O.3       1 <1>        -0.4041
      3 C3         -1.2450   -1.4566    1.2344 C.ar      1 <1>         0.0073
      4 C4         -1.1414   -2.8386    1.1195 C.ar      1 <1>        -0.0214
      5 C5         -2.2764   -3.6265    1.1639 C.ar      1 <1>         0.0272
      6 O6         -2.1772   -4.9754    1.0524 O.3       1 <1>        -0.3940
      7 C7         -0.8653   -5.5182    0.8908 C.3       1 <1>         0.0358
      8 C8         -3.5300   -3.0220    1.3252 C.ar      1 <1>         0.0856
      9 C9         -4.7630   -3.8231    1.3782 C.2       1 <1>         0.1353
     10 O10        -4.7336   -5.0394    1.2834 O.2       1 <1>        -0.4486
     11 C11        -5.9890   -3.1250    1.5447 C.2       1 <1>         0.1210
     12 O12        -7.1646   -3.8075    1.6019 O.3       1 <1>        -0.4182
     13 C13        -7.5753   -4.4927    0.4170 C.3       1 <1>         0.0179
     14 C14        -5.9780   -1.7675    1.6469 C.2       1 <1>         0.0980
     15 C15        -7.2603   -1.0576    1.8195 C.ar      1 <1>        -0.0177
     16 C16        -8.1828   -1.4966    2.7723 C.ar      1 <1>        -0.0710
     17 C17        -9.3793   -0.8283    2.9281 C.ar      1 <1>        -0.0932
     18 C18        -9.6671    0.2743    2.1430 C.ar      1 <1>        -0.1017
     19 C19        -8.7582    0.7145    1.1969 C.ar      1 <1>        -0.0987
     20 C20        -7.5549    0.0599    1.0348 C.ar      1 <1>        -0.0784
     21 O21        -4.8428   -1.0497    1.5971 O.3       1 <1>        -0.3171
     22 C22        -3.6319   -1.6241    1.4411 C.ar      1 <1>         0.0666
     23 C23        -2.4814   -0.8518    1.3995 C.ar      1 <1>         0.0027
     24 H24         1.2710   -2.0691    1.8447 H         1 <1>         0.0918
     25 H25         1.1044   -1.9273    0.0782 H         1 <1>         0.0918
     26 H26         1.9331   -0.6494    0.9994 H         1 <1>         0.1280
     27 H27        -0.1716   -3.2976    0.9950 H         1 <1>         0.1154
     28 H28        -0.2524   -5.2496    1.7511 H         1 <1>         0.0931
     29 H29        -0.9281   -6.6037    0.8142 H         1 <1>         0.1293
     30 H30        -0.4146   -5.1154   -0.0163 H         1 <1>         0.0931
     31 H31        -8.5672   -4.9182    0.5687 H         1 <1>         0.1208
     32 H32        -7.6044   -3.7913   -0.4168 H         1 <1>         0.0774
     33 H33        -6.8673   -5.2914    0.1954 H         1 <1>         0.0918
     34 H34        -7.9598   -2.3574    3.3851 H         1 <1>         0.1455
     35 H35       -10.0934   -1.1666    3.6642 H         1 <1>         0.1228
     36 H36       -10.6056    0.7935    2.2690 H         1 <1>         0.1241
     37 H37        -8.9896    1.5753    0.5872 H         1 <1>         0.1194
     38 H38        -6.8463    0.4049    0.2964 H         1 <1>         0.1324
     39 H39        -2.5486    0.2221    1.4924 H         1 <1>         0.1491
@<TRIPOS>BOND
     1    1    2 1
     2    1   24 1
     3    1   25 1
     4    1   26 1
     5    2    3 1
     6    3   23 ar
     7    3    4 ar
     8    4    5 ar
     9    4   27 1
    10    5    6 1
    11    5    8 ar
    12    6    7 1
    13    7   28 1
    14    7   29 1
    15    7   30 1
    16    8   22 ar
    17    8    9 1
    18    9   10 2
    19    9   11 1
    20   11   12 1
    21   11   14 2
    22   12   13 1
    23   13   31 1
    24   13   32 1
    25   13   33 1
    26   14   15 1
    27   14   21 1
    28   15   20 ar
    29   15   16 ar
    30   16   17 ar
    31   16   34 1
    32   17   18 ar
    33   17   35 1
    34   18   19 ar
    35   18   36 1
    36   19   20 ar
    37   19   37 1
    38   20   38 1
    39   21   22 1
    40   22   23 ar
    41   23   39 1
@<TRIPOS>Similarity
1.1243
@<TRIPOS>ShapeSim
0.7380
@<TRIPOS>PharmSim
0.3863
# END
# Name:		CCOC1=CC=C2C(SC(C)=N2)=C1
# Created and modified by SHAFTS on Sun Mar 21 16:57:45 2021

# 

@<TRIPOS>MOLECULE
CCOC1=CC=C2C(SC(C)=N2)=C1
   24    25     0
SMALL
USER_CHARGE


@<TRIPOS>ATOM
      1 C1         -3.3817   -6.2494    1.0740 C.3       1 <1>        -0.0330
      2 C2         -3.7981   -4.7850    1.2265 C.3       1 <1>         0.0172
      3 O3         -5.2191   -4.7046    1.3536 O.3       1 <1>        -0.4126
      4 C4         -5.7566   -3.4643    1.4985 C.ar      1 <1>        -0.0008
      5 C5         -4.9310   -2.3437    1.5122 C.ar      1 <1>        -0.0477
      6 C6         -5.4545   -1.0959    1.6568 C.ar      1 <1>        -0.0550
      7 C7         -6.8468   -0.9121    1.7956 C.ar      1 <1>        -0.0328
      8 N8         -7.5365    0.2356    1.9473 N.2       1 <1>        -0.3912
      9 C9         -8.8101    0.1643    2.0555 C.2       1 <1>         0.0130
     10 C10        -9.7256    1.3485    2.2302 C.3       1 <1>         0.0119
     11 S11        -9.3409   -1.5098    1.9716 S.3       1 <1>        -0.0823
     12 C12        -7.6720   -2.0415    1.7808 C.ar      1 <1>        -0.0039
     13 C13        -7.1234   -3.3131    1.6267 C.ar      1 <1>        -0.0380
     14 H14        -3.7002   -6.8110    1.9522 H         1 <1>         0.0511
     15 H15        -3.8504   -6.6695    0.1842 H         1 <1>         0.0511
     16 H16        -2.2978   -6.3107    0.9770 H         1 <1>         0.0583
     17 H17        -3.3293   -4.3648    2.1163 H         1 <1>         0.0999
     18 H18        -3.4794   -4.2233    0.3483 H         1 <1>         0.0999
     19 H19        -3.8630   -2.4659    1.4072 H         1 <1>         0.1268
     20 H20        -4.7981   -0.2383    1.6658 H         1 <1>         0.1576
     21 H21       -10.0372    1.7144    1.2518 H         1 <1>         0.0900
     22 H22       -10.6034    1.0479    2.8021 H         1 <1>         0.0900
     23 H23        -9.1984    2.1399    2.7630 H         1 <1>         0.0900
     24 H24        -7.7666   -4.1805    1.6109 H         1 <1>         0.1407
@<TRIPOS>BOND
     1    1    2 1
     2    1   14 1
     3    1   15 1
     4    1   16 1
     5    2    3 1
     6    2   17 1
     7    2   18 1
     8    3    4 1
     9    4   13 ar
    10    4    5 ar
    11    5    6 ar
    12    5   19 1
    13    6    7 ar
    14    6   20 1
    15    7   12 ar
    16    7    8 1
    17    8    9 2
    18    9   10 1
    19    9   11 1
    20   10   21 1
    21   10   22 1
    22   10   23 1
    23   11   12 1
    24   12   13 ar
    25   13   24 1
@<TRIPOS>Similarity
1.1233
@<TRIPOS>ShapeSim
0.6722
@<TRIPOS>PharmSim
0.4511
# END
# Name:		ClC1=C(NC2=C3C=CC4=C2NC(C(OCC)=O)=C4)C3=CC=C1
# Created and modified by SHAFTS on Sun Mar 21 16:57:45 2021

# 

@<TRIPOS>MOLECULE
ClC1=C(NC2=C3C=CC4=C2NC(C(OCC)=O)=C4)C3=CC=C1
   35    38     0
SMALL
USER_CHARGE


@<TRIPOS>ATOM
      1 C1          0.7893   -1.6908    1.0429 C.3       1 <1>        -0.0324
      2 C2         -0.0962   -2.9384    1.0240 C.3       1 <1>         0.0283
      3 O3         -1.4859   -2.5480    1.1815 O.3       1 <1>        -0.3484
      4 C4         -2.4028   -3.5369    1.1861 C.2       1 <1>         0.2063
      5 O5         -2.0499   -4.6937    1.0617 O.2       1 <1>        -0.4332
      6 C6         -3.8272   -3.2165    1.3413 C.2       1 <1>         0.0708
      7 C7         -4.8423   -4.1223    1.3672 C.2       1 <1>        -0.0301
      8 C8         -6.0525   -3.4091    1.5320 C.ar      1 <1>        -0.0421
      9 C9         -5.7188   -2.0457    1.6029 C.ar      1 <1>        -0.0140
     10 N10        -4.3519   -1.9476    1.4903 N.pl3     1 <1>        -0.3330
     11 C11        -6.7328   -1.0937    1.7680 C.ar      1 <1>        -0.0134
     12 C12        -8.0612   -1.5190    1.8594 C.ar      1 <1>        -0.0351
     13 C13        -8.3774   -2.8829    1.7873 C.ar      1 <1>        -0.0743
     14 C14        -7.3976   -3.8104    1.6261 C.ar      1 <1>        -0.0755
     15 C15        -8.8782   -0.3038    2.0260 C.ar      1 <1>        -0.0371
     16 C16        -7.9866    0.7794    2.0242 C.ar      1 <1>        -0.0259
     17 N17        -6.7050    0.2861    1.8684 N.pl3     1 <1>        -0.3467
     18 C18        -8.4841    2.0727    2.1670 C.ar      1 <1>         0.0159
     19 Cl19       -7.3965    3.4259    2.1665 Cl        1 <1>        -0.1412
     20 C20        -9.8401    2.2781    2.3081 C.ar      1 <1>        -0.0645
     21 C21       -10.7196    1.2055    2.3100 C.ar      1 <1>        -0.0863
     22 C22       -10.2469   -0.0807    2.1697 C.ar      1 <1>        -0.0751
     23 H23         0.6635   -1.1703    1.9923 H         1 <1>         0.0514
     24 H24         1.8324   -1.9838    0.9246 H         1 <1>         0.0585
     25 H25         0.5027   -1.0294    0.2253 H         1 <1>         0.0514
     26 H26         0.0295   -3.4588    0.0745 H         1 <1>         0.1085
     27 H27         0.1904   -3.5998    1.8417 H         1 <1>         0.1085
     28 H28        -4.7419   -5.1939    1.2776 H         1 <1>         0.1682
     29 H29        -3.8413   -1.1231    1.5060 H         1 <1>         0.3390
     30 H30        -9.4076   -3.1988    1.8596 H         1 <1>         0.1318
     31 H31        -7.6519   -4.8586    1.5717 H         1 <1>         0.1406
     32 H32        -5.9018    0.8288    1.8350 H         1 <1>         0.3320
     33 H33       -10.2208    3.2828    2.4184 H         1 <1>         0.1434
     34 H34       -11.7796    1.3796    2.4221 H         1 <1>         0.1272
     35 H35       -10.9343   -0.9137    2.1716 H         1 <1>         0.1463
@<TRIPOS>BOND
     1    1    2 1
     2    1   23 1
     3    1   24 1
     4    1   25 1
     5    2    3 1
     6    2   26 1
     7    2   27 1
     8    3    4 1
     9    4    5 2
    10    4    6 1
    11    6   10 1
    12    6    7 2
    13    7    8 1
    14    7   28 1
    15    8   14 ar
    16    8    9 ar
    17    9   10 1
    18    9   11 ar
    19   10   29 1
    20   11   17 1
    21   11   12 ar
    22   12   13 ar
    23   12   15 1
    24   13   14 ar
    25   13   30 1
    26   14   31 1
    27   15   22 ar
    28   15   16 ar
    29   16   17 1
    30   16   18 ar
    31   17   32 1
    32   18   19 1
    33   18   20 ar
    34   20   21 ar
    35   20   33 1
    36   21   22 ar
    37   21   34 1
    38   22   35 1
@<TRIPOS>Similarity
1.1227
@<TRIPOS>ShapeSim
0.7650
@<TRIPOS>PharmSim
0.3577
# END
# Name:		O=C(N1CCN(C(C)=O)CC1)C2=C3C(/C(CC3)=C\C4=CC=CC=C4)=NC5=C2C=CC=C5
# Created and modified by SHAFTS on Sun Mar 21 16:57:45 2021

# 

@<TRIPOS>MOLECULE
O=C(N1CCN(C(C)=O)CC1)C2=C3C(/C(CC3)=C\C4=CC=CC=C4)=NC5=C2C=CC=C5
   56    60     0
SMALL
USER_CHARGE


@<TRIPOS>ATOM
      1 C1        -12.6882   -6.1069   -2.5605 C.3       1 <1>         0.0480
      2 C2        -11.6112   -5.0530   -2.5808 C.2       1 <1>         0.0704
      3 O3        -11.2690   -4.5559   -3.6328 O.2       1 <1>        -0.4982
      4 N4        -11.0282   -4.6630   -1.4300 N.am      1 <1>        -0.3582
      5 C5        -11.4284   -5.2611   -0.1486 C.3       1 <1>        -0.0005
      6 C6        -10.1802   -5.8284    0.5386 C.3       1 <1>         0.0053
      7 N7         -9.1325   -4.7977    0.5345 N.am      1 <1>        -0.3372
      8 C8         -8.5489   -4.4084    1.6853 C.2       1 <1>         0.1334
      9 O9         -8.8879   -4.9105    2.7389 O.2       1 <1>        -0.4641
     10 C10        -7.4959   -3.3699    1.6659 C.ar      1 <1>         0.0589
     11 C11        -7.8264   -1.9520    1.8041 C.ar      1 <1>        -0.0139
     12 C12        -9.1467   -1.5182    1.9598 C.ar      1 <1>        -0.0800
     13 C13        -9.4076   -0.1855    2.0855 C.ar      1 <1>        -0.0925
     14 C14        -8.3745    0.7488    2.0602 C.ar      1 <1>        -0.0814
     15 C15        -7.0788    0.3609    1.9102 C.ar      1 <1>        -0.0465
     16 C16        -6.7698   -1.0066    1.7778 C.ar      1 <1>        -0.0117
     17 N17        -5.5128   -1.4162    1.6303 N.ar      1 <1>        -0.3712
     18 C18        -5.1802   -2.6968    1.5028 C.ar      1 <1>        -0.0119
     19 C19        -6.1571   -3.7053    1.5219 C.ar      1 <1>        -0.0256
     20 C20        -5.5014   -5.0543    1.3576 C.3       1 <1>        -0.0206
     21 C21        -3.9953   -4.7885    1.2320 C.3       1 <1>        -0.0219
     22 C22        -3.8396   -3.2915    1.3331 C.2       1 <1>        -0.0509
     23 C23        -2.6801   -2.6148    1.2726 C.2       1 <1>        -0.0674
     24 C24        -1.4276   -3.3257    0.9619 C.ar      1 <1>        -0.0822
     25 C25        -1.4007   -4.2928   -0.0469 C.ar      1 <1>        -0.0946
     26 C26        -0.2244   -4.9537   -0.3324 C.ar      1 <1>        -0.1055
     27 C27         0.9272   -4.6619    0.3773 C.ar      1 <1>        -0.1075
     28 C28         0.9082   -3.7059    1.3778 C.ar      1 <1>        -0.1039
     29 C29        -0.2592   -3.0322    1.6704 C.ar      1 <1>        -0.0926
     30 C30        -8.7323   -4.1996   -0.7469 C.3       1 <1>         0.0049
     31 C31        -9.9766   -3.6363   -1.4347 C.3       1 <1>         0.0003
     32 H32       -13.0371   -6.2896   -3.5769 H         1 <1>         0.0862
     33 H33       -12.2855   -7.0299   -2.1432 H         1 <1>         0.0862
     34 H34       -13.5210   -5.7637   -1.9466 H         1 <1>         0.0862
     35 H35       -11.8805   -4.4986    0.4857 H         1 <1>         0.1090
     36 H36       -12.1443   -6.0635   -0.3272 H         1 <1>         0.1234
     37 H37       -10.4205   -6.1017    1.5660 H         1 <1>         0.1319
     38 H38        -9.8311   -6.7069   -0.0042 H         1 <1>         0.1103
     39 H39        -9.9549   -2.2344    1.9800 H         1 <1>         0.1209
     40 H40       -10.4272    0.1495    2.2058 H         1 <1>         0.1264
     41 H41        -8.6059    1.7989    2.1609 H         1 <1>         0.1355
     42 H42        -6.2905    1.0990    1.8924 H         1 <1>         0.1500
     43 H43        -5.7003   -5.6760    2.2304 H         1 <1>         0.0782
     44 H44        -5.8717   -5.5434    0.4566 H         1 <1>         0.0782
     45 H45        -3.4573   -5.2768    2.0444 H         1 <1>         0.0767
     46 H46        -3.6288   -5.1440    0.2689 H         1 <1>         0.0767
     47 H47        -2.6664   -1.5499    1.4517 H         1 <1>         0.1494
     48 H48        -2.2987   -4.5221   -0.6011 H         1 <1>         0.1245
     49 H49        -0.2020   -5.7012   -1.1116 H         1 <1>         0.1126
     50 H50         1.8453   -5.1829    0.1496 H         1 <1>         0.1142
     51 H51         1.8106   -3.4839    1.9280 H         1 <1>         0.1130
     52 H52        -0.2725   -2.2863    2.4513 H         1 <1>         0.1271
     53 H53        -8.0164   -3.3972   -0.5684 H         1 <1>         0.1248
     54 H54        -8.2802   -4.9621   -1.3812 H         1 <1>         0.1103
     55 H55        -9.7349   -3.3634   -2.4619 H         1 <1>         0.1329
     56 H56       -10.3279   -2.7580   -0.8932 H         1 <1>         0.1040
@<TRIPOS>BOND
     1    1    2 1
     2    1   32 1
     3    1   33 1
     4    1   34 1
     5    2    3 2
     6    2    4 am
     7    4   31 1
     8    4    5 1
     9    5    6 1
    10    5   35 1
    11    5   36 1
    12    6    7 1
    13    6   37 1
    14    6   38 1
    15    7    8 am
    16    7   30 1
    17    8    9 2
    18    8   10 1
    19   10   19 ar
    20   10   11 ar
    21   11   16 ar
    22   11   12 ar
    23   12   13 ar
    24   12   39 1
    25   13   14 ar
    26   13   40 1
    27   14   15 ar
    28   14   41 1
    29   15   16 ar
    30   15   42 1
    31   16   17 ar
    32   17   18 ar
    33   18   22 1
    34   18   19 ar
    35   19   20 1
    36   20   21 1
    37   20   43 1
    38   20   44 1
    39   21   22 1
    40   21   45 1
    41   21   46 1
    42   22   23 2
    43   23   24 1
    44   23   47 1
    45   24   29 ar
    46   24   25 ar
    47   25   26 ar
    48   25   48 1
    49   26   27 ar
    50   26   49 1
    51   27   28 ar
    52   27   50 1
    53   28   29 ar
    54   28   51 1
    55   29   52 1
    56   30   31 1
    57   30   53 1
    58   30   54 1
    59   31   55 1
    60   31   56 1
@<TRIPOS>Similarity
1.1223
@<TRIPOS>ShapeSim
0.6881
@<TRIPOS>PharmSim
0.4341
# END
# Name:		COC1=CC2=C(C=C1)NC(=O)C(=C2)C3=NOC(=N3)C4=CC=C(C=C4)F
# Created and modified by SHAFTS on Sun Mar 21 16:57:45 2021

# 

@<TRIPOS>MOLECULE
COC1=CC2=C(C=C1)NC(=O)C(=C2)C3=NOC(=N3)C4=CC=C(C=C4)F
   37    40     0
SMALL
USER_CHARGE


@<TRIPOS>ATOM
      1 C1        -11.8142   -0.9209    2.2399 C.3       1 <1>         0.0231
      2 O2        -10.7603   -1.8723    2.0776 O.3       1 <1>        -0.4187
      3 C3         -9.4940   -1.3834    1.9996 C.ar      1 <1>        -0.0019
      4 C4         -9.2745   -0.0106    2.0842 C.ar      1 <1>        -0.0556
      5 C5         -7.9981    0.5007    2.0065 C.ar      1 <1>        -0.0598
      6 C6         -6.9121   -0.3542    1.8420 C.ar      1 <1>        -0.0327
      7 N7         -5.6324    0.1594    1.7643 N.am      1 <1>        -0.2890
      8 C8         -4.5727   -0.6557    1.6052 C.2       1 <1>         0.1492
      9 O9         -3.4503   -0.1866    1.5388 O.2       1 <1>        -0.4508
     10 C10        -4.7649   -2.1052    1.5122 C.2       1 <1>         0.1100
     11 C11        -3.6000   -3.0037    1.3377 C.2       1 <1>         0.1007
     12 N12        -3.6351   -4.3090    1.2356 N.2       1 <1>        -0.2017
     13 O13        -2.5139   -4.7511    1.1009 O.3       1 <1>        -0.2089
     14 C14        -1.6227   -3.7475    1.1031 C.2       1 <1>         0.1806
     15 C15        -0.1569   -3.8719    0.9636 C.ar      1 <1>         0.0268
     16 C16         0.6486   -2.7318    0.9896 C.ar      1 <1>        -0.0473
     17 C17         2.0157   -2.8536    0.8595 C.ar      1 <1>        -0.0327
     18 C18         2.5907   -4.1052    0.7025 C.ar      1 <1>         0.0706
     19 F19         3.9309   -4.2191    0.5754 F         1 <1>        -0.2602
     20 C20         1.7956   -5.2404    0.6759 C.ar      1 <1>        -0.0358
     21 C21         0.4280   -5.1304    0.8110 C.ar      1 <1>        -0.0514
     22 N22        -2.3062   -2.6279    1.2486 N.2       1 <1>        -0.2942
     23 C23        -6.0285   -2.6218    1.5883 C.2       1 <1>        -0.0116
     24 C24        -7.1277   -1.7423    1.7564 C.ar      1 <1>        -0.0235
     25 C25        -8.4323   -2.2497    1.8426 C.ar      1 <1>        -0.0326
     26 H26       -11.6591   -0.3606    3.1620 H         1 <1>         0.0904
     27 H27       -11.8170   -0.2339    1.3936 H         1 <1>         0.0904
     28 H28       -12.7702   -1.4423    2.2879 H         1 <1>         0.1194
     29 H29       -10.1125    0.6587    2.2114 H         1 <1>         0.1330
     30 H30        -7.8396    1.5671    2.0729 H         1 <1>         0.1363
     31 H31        -5.4956    1.1178    1.8245 H         1 <1>         0.3408
     32 H32         0.2015   -1.7562    1.1112 H         1 <1>         0.1617
     33 H33         2.6397   -1.9724    0.8795 H         1 <1>         0.1414
     34 H34         2.2487   -6.2131    0.5529 H         1 <1>         0.1405
     35 H35        -0.1906   -6.0156    0.7905 H         1 <1>         0.1566
     36 H36        -6.1875   -3.6879    1.5212 H         1 <1>         0.1791
     37 H37        -8.6052   -3.3140    1.7814 H         1 <1>         0.1576
@<TRIPOS>BOND
     1    1    2 1
     2    1   26 1
     3    1   27 1
     4    1   28 1
     5    2    3 1
     6    3   25 ar
     7    3    4 ar
     8    4    5 ar
     9    4   29 1
    10    5    6 ar
    11    5   30 1
    12    6   24 ar
    13    6    7 1
    14    7    8 am
    15    7   31 1
    16    8    9 2
    17    8   10 1
    18   10   11 1
    19   10   23 2
    20   11   22 1
    21   11   12 2
    22   12   13 1
    23   13   14 1
    24   14   15 1
    25   14   22 2
    26   15   21 ar
    27   15   16 ar
    28   16   17 ar
    29   16   32 1
    30   17   18 ar
    31   17   33 1
    32   18   19 1
    33   18   20 ar
    34   20   21 ar
    35   20   34 1
    36   21   35 1
    37   23   24 1
    38   23   36 1
    39   24   25 ar
    40   25   37 1
@<TRIPOS>Similarity
1.1193
@<TRIPOS>ShapeSim
0.8145
@<TRIPOS>PharmSim
0.3047
# END
# Name:		NS(C(C=C1)=CC(/C2=C/C3=CNC4=CC=CC=C43)=C1NC2=O)(=O)=O
# Created and modified by SHAFTS on Sun Mar 21 16:57:45 2021

# 

@<TRIPOS>MOLECULE
NS(C(C=C1)=CC(/C2=C/C3=CNC4=CC=CC=C43)=C1NC2=O)(=O)=O
   37    40     0
SMALL
USER_CHARGE


@<TRIPOS>ATOM
      1 N1          1.5877   -0.3992    2.0234 N.am      1 <1>        -0.1574
      2 S2          1.1647   -0.9414    0.5168 S.o2      1 <1>        -0.0668
      3 O3          0.4639    0.1237   -0.1107 O.2       1 <1>        -0.0810
      4 O4          2.3298   -1.5378   -0.0367 O.2       1 <1>        -0.0810
      5 C5         -0.0025   -2.2423    0.7394 C.ar      1 <1>         0.2934
      6 C6          0.4355   -3.5496    0.8679 C.ar      1 <1>         0.0056
      7 C7         -0.4668   -4.5795    1.0428 C.ar      1 <1>        -0.0521
      8 C8         -1.8302   -4.3118    1.0920 C.ar      1 <1>        -0.0352
      9 N9         -2.9313   -5.1433    1.2548 N.am      1 <1>        -0.2946
     10 C10        -4.0792   -4.4446    1.2402 C.2       1 <1>         0.1179
     11 O11        -5.1999   -4.9069    1.3612 O.2       1 <1>        -0.4616
     12 C12        -3.7463   -3.0270    1.0536 C.2       1 <1>         0.0380
     13 C13        -4.6210   -1.9620    0.9804 C.2       1 <1>        -0.0440
     14 C14        -6.0159   -2.1945    0.9230 C.2       1 <1>        -0.0422
     15 C15        -6.6569   -3.2321    0.2771 C.2       1 <1>        -0.0424
     16 N16        -7.9949   -3.1140    0.4500 N.pl3     1 <1>        -0.3569
     17 C17        -8.2896   -2.0013    1.2119 C.ar      1 <1>        -0.0626
     18 C18        -9.4850   -1.4505    1.6626 C.ar      1 <1>        -0.0770
     19 C19        -9.4694   -0.3029    2.4254 C.ar      1 <1>        -0.0972
     20 C20        -8.2702    0.3132    2.7506 C.ar      1 <1>        -0.0991
     21 C21        -7.0756   -0.2172    2.3131 C.ar      1 <1>        -0.0882
     22 C22        -7.0767   -1.3794    1.5474 C.ar      1 <1>        -0.0657
     23 C23        -2.2694   -2.9870    0.9619 C.ar      1 <1>        -0.0267
     24 C24        -1.3521   -1.9561    0.7910 C.ar      1 <1>         0.0153
     25 H25         1.4265    0.5252    2.2691 H         1 <1>         0.3213
     26 H26         1.9929   -1.0070    2.6615 H         1 <1>         0.3213
     27 H27         1.4930   -3.7655    0.8308 H         1 <1>         0.1604
     28 H28        -0.1130   -5.5952    1.1412 H         1 <1>         0.1347
     29 H29        -2.8783   -6.1056    1.3651 H         1 <1>         0.3370
     30 H30        -4.2410   -0.9511    0.9670 H         1 <1>         0.1811
     31 H31        -6.1672   -4.0168   -0.2805 H         1 <1>         0.2266
     32 H32        -8.6545   -3.7262    0.0883 H         1 <1>         0.3352
     33 H33       -10.4245   -1.9218    1.4144 H         1 <1>         0.1211
     34 H34       -10.3999    0.1211    2.7730 H         1 <1>         0.1246
     35 H35        -8.2724    1.2123    3.3489 H         1 <1>         0.1193
     36 H36        -6.1428    0.2642    2.5671 H         1 <1>         0.1315
     37 H37        -1.6941   -0.9361    0.6963 H         1 <1>         0.1673
@<TRIPOS>BOND
     1    1    2 am
     2    1   25 1
     3    1   26 1
     4    2    3 2
     5    2    4 2
     6    2    5 1
     7    5   24 ar
     8    5    6 ar
     9    6    7 ar
    10    6   27 1
    11    7    8 ar
    12    7   28 1
    13    8   23 ar
    14    8    9 1
    15    9   10 am
    16    9   29 1
    17   10   11 2
    18   10   12 1
    19   12   13 2
    20   12   23 1
    21   13   14 1
    22   13   30 1
    23   14   22 1
    24   14   15 2
    25   15   16 1
    26   15   31 1
    27   16   17 1
    28   16   32 1
    29   17   22 ar
    30   17   18 ar
    31   18   19 ar
    32   18   33 1
    33   19   20 ar
    34   19   34 1
    35   20   21 ar
    36   20   35 1
    37   21   22 ar
    38   21   36 1
    39   23   24 ar
    40   24   37 1
@<TRIPOS>Similarity
1.1187
@<TRIPOS>ShapeSim
0.8153
@<TRIPOS>PharmSim
0.3034
# END
# Name:		COC1=CC2=C(C=C1)C(=O)C=C(O2)C3=CC=CC=C3
# Created and modified by SHAFTS on Sun Mar 21 16:57:45 2021

# 

@<TRIPOS>MOLECULE
COC1=CC2=C(C=C1)C(=O)C=C(O2)C3=CC=CC=C3
   31    33     0
SMALL
USER_CHARGE


@<TRIPOS>ATOM
      1 C1          0.8999   -1.7556    1.0068 C.3       1 <1>         0.0279
      2 O2         -0.3243   -1.0391    1.1801 O.3       1 <1>        -0.4092
      3 C3         -1.4657   -1.7721    1.2295 C.ar      1 <1>         0.0049
      4 C4         -1.4013   -3.1590    1.1182 C.ar      1 <1>        -0.0551
      5 C5         -2.5419   -3.9095    1.1663 C.ar      1 <1>        -0.0676
      6 C6         -3.7770   -3.2822    1.3278 C.ar      1 <1>         0.0334
      7 C7         -5.0294   -4.0590    1.3847 C.2       1 <1>         0.0791
      8 O8         -5.0259   -5.2756    1.2925 O.2       1 <1>        -0.4736
      9 C9         -6.2356   -3.3373    1.5510 C.2       1 <1>         0.0227
     10 C10        -6.1978   -1.9820    1.6504 C.2       1 <1>         0.0545
     11 C11        -7.4670   -1.2472    1.8235 C.ar      1 <1>        -0.0242
     12 C12        -8.6766   -1.9423    1.8885 C.ar      1 <1>        -0.0747
     13 C13        -9.8584   -1.2497    2.0508 C.ar      1 <1>        -0.0944
     14 C14        -9.8473    0.1305    2.1492 C.ar      1 <1>        -0.0984
     15 C15        -8.6524    0.8256    2.0855 C.ar      1 <1>        -0.0944
     16 C16        -7.4627    0.1454    1.9288 C.ar      1 <1>        -0.0747
     17 O17        -5.0516   -1.2858    1.5975 O.3       1 <1>        -0.3293
     18 C18        -3.8517   -1.8832    1.4409 C.ar      1 <1>         0.0548
     19 C19        -2.6846   -1.1351    1.3959 C.ar      1 <1>         0.0007
     20 H20         1.0342   -2.4512    1.8352 H         1 <1>         0.0911
     21 H21         0.8669   -2.3098    0.0687 H         1 <1>         0.0911
     22 H22         1.7324   -1.0523    0.9842 H         1 <1>         0.1273
     23 H23        -0.4443   -3.6436    0.9929 H         1 <1>         0.1187
     24 H24        -2.4873   -4.9847    1.0793 H         1 <1>         0.1611
     25 H25        -7.1797   -3.8598    1.5984 H         1 <1>         0.1367
     26 H26        -8.6867   -3.0196    1.8116 H         1 <1>         0.1405
     27 H27       -10.7946   -1.7859    2.1010 H         1 <1>         0.1224
     28 H28       -10.7755    0.6678    2.2758 H         1 <1>         0.1271
     29 H29        -8.6510    1.9027    2.1630 H         1 <1>         0.1224
     30 H30        -6.5308    0.6890    1.8793 H         1 <1>         0.1405
     31 H31        -2.7263   -0.0597    1.4864 H         1 <1>         0.1486
@<TRIPOS>BOND
     1    1    2 1
     2    1   20 1
     3    1   21 1
     4    1   22 1
     5    2    3 1
     6    3   19 ar
     7    3    4 ar
     8    4    5 ar
     9    4   23 1
    10    5    6 ar
    11    5   24 1
    12    6   18 ar
    13    6    7 1
    14    7    8 2
    15    7    9 1
    16    9   10 2
    17    9   25 1
    18   10   11 1
    19   10   17 1
    20   11   16 ar
    21   11   12 ar
    22   12   13 ar
    23   12   26 1
    24   13   14 ar
    25   13   27 1
    26   14   15 ar
    27   14   28 1
    28   15   16 ar
    29   15   29 1
    30   16   30 1
    31   17   18 1
    32   18   19 ar
    33   19   31 1
@<TRIPOS>Similarity
1.1185
@<TRIPOS>ShapeSim
0.7597
@<TRIPOS>PharmSim
0.3588
# END
# Name:		O=C1C(OC)=C(OC2=CC(O)=CC(O)=C21)C3=CC=CC=C3
# Created and modified by SHAFTS on Sun Mar 21 16:57:45 2021

# 

@<TRIPOS>MOLECULE
O=C1C(OC)=C(OC2=CC(O)=CC(O)=C21)C3=CC=CC=C3
   32    34     0
SMALL
USER_CHARGE


@<TRIPOS>ATOM
      1 C1         -4.8768   -5.7289    0.0704 C.3       1 <1>           -nan
      2 O2         -4.6621   -4.9987    1.2799 O.3       1 <1>           -nan
      3 C3         -3.6896   -4.0473    1.2626 C.2       1 <1>           -nan
      4 C4         -4.0143   -2.7316    1.3926 C.2       1 <1>           -nan
      5 C5         -5.4345   -2.3626    1.5517 C.ar      1 <1>           -nan
      6 C6         -6.2360   -3.0386    2.4749 C.ar      1 <1>           -nan
      7 C7         -7.5622   -2.6881    2.6185 C.ar      1 <1>           -nan
      8 C8         -8.0992   -1.6698    1.8507 C.ar      1 <1>           -nan
      9 C9         -7.3111   -0.9959    0.9343 C.ar      1 <1>           -nan
     10 C10        -5.9820   -1.3321    0.7838 C.ar      1 <1>           -nan
     11 O11        -3.0898   -1.7562    1.3821 O.3       1 <1>           -nan
     12 C12        -1.7723   -2.0118    1.2414 C.ar      1 <1>           -nan
     13 C13        -0.8469   -0.9796    1.2357 C.ar      1 <1>           -nan
     14 C14         0.5032   -1.2586    1.0906 C.ar      1 <1>           -nan
     15 O15         1.4029   -0.2420    1.0866 O.3       1 <1>           -nan
     16 C16         0.9452   -2.5696    0.9495 C.ar      1 <1>           -nan
     17 C17         0.0379   -3.6127    0.9527 C.ar      1 <1>           -nan
     18 O18         0.4674   -4.8927    0.8147 O.3       1 <1>           -nan
     19 C19        -1.3282   -3.3386    1.0990 C.ar      1 <1>           -nan
     20 C20        -2.3265   -4.4192    1.1147 C.2       1 <1>           -nan
     21 O21        -1.9969   -5.5887    1.0007 O.2       1 <1>           -nan
     22 H22        -5.2384   -5.0518   -0.7036 H         1 <1>           -nan
     23 H23        -3.9392   -6.1817   -0.2520 H         1 <1>           -nan
     24 H24        -5.6168   -6.5102    0.2442 H         1 <1>           -nan
     25 H25        -5.8181   -3.8338    3.0744 H         1 <1>           -nan
     26 H26        -8.1831   -3.2100    3.3315 H         1 <1>           -nan
     27 H27        -9.1384   -1.3998    1.9671 H         1 <1>           -nan
     28 H28        -7.7369   -0.2022    0.3384 H         1 <1>           -nan
     29 H29        -5.3681   -0.8054    0.0682 H         1 <1>           -nan
     30 H30        -1.1780    0.0426    1.3441 H         1 <1>           -nan
     31 H31         1.9998   -2.7733    0.8368 H         1 <1>           -nan
     32 H32         0.6726   -5.3312    1.6518 H         1 <1>           -nan
@<TRIPOS>BOND
     1    1    2 1
     2    1   22 1
     3    1   23 1
     4    1   24 1
     5    2    3 1
     6    3   20 1
     7    3    4 2
     8    4    5 1
     9    4   11 1
    10    5   10 ar
    11    5    6 ar
    12    6    7 ar
    13    6   25 1
    14    7    8 ar
    15    7   26 1
    16    8    9 ar
    17    8   27 1
    18    9   10 ar
    19    9   28 1
    20   10   29 1
    21   11   12 1
    22   12   19 ar
    23   12   13 ar
    24   13   14 ar
    25   13   30 1
    26   14   15 1
    27   14   16 ar
    28   16   17 ar
    29   16   31 1
    30   17   18 1
    31   17   19 ar
    32   18   32 1
    33   19   20 1
    34   20   21 2
@<TRIPOS>Similarity
1.1157
@<TRIPOS>ShapeSim
0.7623
@<TRIPOS>PharmSim
0.3534
# END
# Name:		CC1=CC(=NC(=N1)N2C(=CC(=N2)C)C)NC3CCCCC3
# Created and modified by SHAFTS on Sun Mar 21 16:57:45 2021

# 

@<TRIPOS>MOLECULE
CC1=CC(=NC(=N1)N2C(=CC(=N2)C)C)NC3CCCCC3
   44    46     0
SMALL
USER_CHARGE


@<TRIPOS>ATOM
      1 C1         -7.3501   -5.1616    1.5415 C.3       1 <1>        -0.0029
      2 C2         -7.0860   -3.6797    1.6144 C.2       1 <1>        -0.0220
      3 C3         -8.0144   -2.7102    1.7786 C.2       1 <1>        -0.0530
      4 C4         -7.3527   -1.4765    1.7923 C.2       1 <1>        -0.0266
      5 C5         -8.0052   -0.1277    1.9538 C.3       1 <1>        -0.0040
      6 N6         -6.0719   -1.6937    1.6420 N.2       1 <1>        -0.3079
      7 N7         -5.8710   -3.0759    1.5327 N.pl3     1 <1>        -0.2216
      8 C8         -4.6443   -3.7172    1.3612 C.ar      1 <1>         0.1319
      9 N9         -4.6141   -5.0366    1.2692 N.ar      1 <1>        -0.3314
     10 C10        -3.4687   -5.6825    1.1058 C.ar      1 <1>        -0.0337
     11 C11        -3.4498   -7.1858    1.0021 C.3       1 <1>         0.0029
     12 C12        -2.2924   -4.9626    1.0312 C.ar      1 <1>        -0.0053
     13 C13        -2.3564   -3.5709    1.1316 C.ar      1 <1>         0.0077
     14 N14        -1.2027   -2.8071    1.0618 N.pl3     1 <1>        -0.3692
     15 C15         0.0971   -3.4584    0.8814 C.3       1 <1>        -0.0415
     16 C16         0.3433   -3.7014   -0.6089 C.3       1 <1>        -0.0513
     17 C17         1.7008   -4.3815   -0.7973 C.3       1 <1>        -0.0669
     18 C18         2.8043   -3.4811   -0.2382 C.3       1 <1>        -0.0730
     19 C19         2.5581   -3.2381    1.2521 C.3       1 <1>        -0.0659
     20 C20         1.2006   -2.5580    1.4404 C.3       1 <1>        -0.0502
     21 N21        -3.5413   -2.9900    1.2892 N.ar      1 <1>        -0.2949
     22 H22        -7.3112   -5.5873    2.5442 H         1 <1>         0.0769
     23 H23        -8.3367   -5.3342    1.1116 H         1 <1>         0.0769
     24 H24        -6.5933   -5.6353    0.9162 H         1 <1>         0.0912
     25 H25        -9.0789   -2.8610    1.8806 H         1 <1>         0.1271
     26 H26        -8.0541    0.1278    3.0124 H         1 <1>         0.0818
     27 H27        -7.4202    0.6247    1.4250 H         1 <1>         0.0818
     28 H28        -9.0136   -0.1601    1.5410 H         1 <1>         0.0818
     29 H29        -3.5518   -7.4792   -0.0427 H         1 <1>         0.0861
     30 H30        -2.5069   -7.5653    1.3957 H         1 <1>         0.0789
     31 H31        -4.2771   -7.6002    1.5783 H         1 <1>         0.0861
     32 H32        -1.3451   -5.4642    0.8987 H         1 <1>         0.1289
     33 H33        -1.2556   -1.8410    1.1323 H         1 <1>         0.3066
     34 H34         0.1027   -4.4112    1.4107 H         1 <1>         0.1131
     35 H35        -0.4429   -4.3428   -1.0072 H         1 <1>         0.0519
     36 H36         0.3378   -2.7485   -1.1382 H         1 <1>         0.0519
     37 H37         1.7063   -5.3343   -0.2680 H         1 <1>         0.0462
     38 H38         1.8762   -4.5547   -1.8590 H         1 <1>         0.0462
     39 H39         3.7715   -3.9657   -0.3724 H         1 <1>         0.0457
     40 H40         2.7988   -2.5283   -0.7676 H         1 <1>         0.0386
     41 H41         2.5636   -4.1910    1.7815 H         1 <1>         0.0466
     42 H42         3.3443   -2.5967    1.6504 H         1 <1>         0.0466
     43 H43         1.1951   -1.6052    0.9112 H         1 <1>         0.0540
     44 H44         1.0252   -2.3848    2.5022 H         1 <1>         0.0540
@<TRIPOS>BOND
     1    1    2 1
     2    1   22 1
     3    1   23 1
     4    1   24 1
     5    2    7 1
     6    2    3 2
     7    3    4 1
     8    3   25 1
     9    4    5 1
    10    4    6 2
    11    5   26 1
    12    5   27 1
    13    5   28 1
    14    6    7 1
    15    7    8 1
    16    8   21 ar
    17    8    9 ar
    18    9   10 ar
    19   10   11 1
    20   10   12 ar
    21   11   29 1
    22   11   30 1
    23   11   31 1
    24   12   13 ar
    25   12   32 1
    26   13   14 1
    27   13   21 ar
    28   14   15 1
    29   14   33 1
    30   15   20 1
    31   15   16 1
    32   15   34 1
    33   16   17 1
    34   16   35 1
    35   16   36 1
    36   17   18 1
    37   17   37 1
    38   17   38 1
    39   18   19 1
    40   18   39 1
    41   18   40 1
    42   19   20 1
    43   19   41 1
    44   19   42 1
    45   20   43 1
    46   20   44 1
@<TRIPOS>Similarity
1.1131
@<TRIPOS>ShapeSim
0.7573
@<TRIPOS>PharmSim
0.3559
# END
# Name:		O=C(C=C(OC1=CC(OC)=C2)C3=CC=C(OC)C(OC)=C3)C1=C2OC
# Created and modified by SHAFTS on Sun Mar 21 16:57:45 2021

# 

@<TRIPOS>MOLECULE
O=C(C=C(OC1=CC(OC)=C2)C3=CC=C(OC)C(OC)=C3)C1=C2OC
   43    45     0
SMALL
USER_CHARGE


@<TRIPOS>ATOM
      1 C1          1.2139   -1.4774    0.9989 C.3       1 <1>         0.0309
      2 O2         -0.0199   -0.7771    1.1710 O.3       1 <1>        -0.4041
      3 C3         -1.1516   -1.5251    1.2185 C.ar      1 <1>         0.0073
      4 C4         -1.0678   -2.9085    1.1065 C.ar      1 <1>        -0.0213
      5 C5         -2.2145   -3.6801    1.1534 C.ar      1 <1>         0.0275
      6 O6         -2.1348   -5.0304    1.0443 O.3       1 <1>        -0.3939
      7 C7         -0.8310   -5.5924    0.8821 C.3       1 <1>         0.0358
      8 C8         -3.4584   -3.0576    1.3151 C.ar      1 <1>         0.0795
      9 C9         -4.7042   -3.8410    1.3709 C.2       1 <1>         0.0893
     10 O10        -4.6927   -5.0579    1.2782 O.2       1 <1>        -0.4677
     11 C11        -5.9150   -3.1278    1.5369 C.2       1 <1>         0.0232
     12 C12        -5.8863   -1.7715    1.6368 C.2       1 <1>         0.0552
     13 C13        -7.1588   -1.0460    1.8099 C.ar      1 <1>        -0.0231
     14 C14        -8.3635   -1.7506    1.8743 C.ar      1 <1>        -0.0728
     15 C15        -9.5518   -1.0706    2.0360 C.ar      1 <1>        -0.0484
     16 C16        -9.5551    0.3135    2.1348 C.ar      1 <1>         0.0398
     17 O17       -10.7288    0.9787    2.2936 O.3       1 <1>        -0.4038
     18 C18       -11.9191    0.1899    2.3507 C.3       1 <1>         0.0271
     19 C19        -8.3566    1.0231    2.0718 C.ar      1 <1>         0.0432
     20 O20        -8.3635    2.3795    2.1694 O.3       1 <1>        -0.4066
     21 C21        -7.0993    3.0417    2.0969 C.3       1 <1>         0.0259
     22 C22        -7.1617    0.3481    1.9157 C.ar      1 <1>        -0.0316
     23 O23        -4.7440   -1.0682    1.5845 O.3       1 <1>        -0.3239
     24 C24        -3.5402   -1.6588    1.4286 C.ar      1 <1>         0.0652
     25 C25        -2.3796   -0.9027    1.3839 C.ar      1 <1>         0.0018
     26 H26         1.1894   -2.0312    0.0604 H         1 <1>         0.0918
     27 H27         2.0372   -0.7633    0.9779 H         1 <1>         0.1280
     28 H28         1.3562   -2.1717    1.8270 H         1 <1>         0.0918
     29 H29        -0.1050   -3.3814    0.9820 H         1 <1>         0.1154
     30 H30        -0.3756   -5.1977   -0.0261 H         1 <1>         0.0931
     31 H31        -0.2133   -5.3311    1.7414 H         1 <1>         0.0931
     32 H32        -0.9095   -6.6770    0.8076 H         1 <1>         0.1293
     33 H33        -6.8555   -3.6566    1.5835 H         1 <1>         0.1367
     34 H34        -8.3639   -2.8278    1.7970 H         1 <1>         0.1411
     35 H35       -10.4824   -1.6165    2.0857 H         1 <1>         0.1342
     36 H36       -12.7822    0.8431    2.4791 H         1 <1>         0.1201
     37 H37       -12.0254   -0.3747    1.4244 H         1 <1>         0.0912
     38 H38       -11.8575   -0.5005    3.1919 H         1 <1>         0.0912
     39 H39        -7.2471    4.1178    2.1877 H         1 <1>         0.1200
     40 H40        -6.4595    2.6930    2.9074 H         1 <1>         0.0910
     41 H41        -6.6271    2.8193    1.1399 H         1 <1>         0.0910
     42 H42        -6.2326    0.8966    1.8667 H         1 <1>         0.1443
     43 H43        -2.4320    0.1722    1.4741 H         1 <1>         0.1419
@<TRIPOS>BOND
     1    1    2 1
     2    1   26 1
     3    1   27 1
     4    1   28 1
     5    2    3 1
     6    3   25 ar
     7    3    4 ar
     8    4    5 ar
     9    4   29 1
    10    5    6 1
    11    5    8 ar
    12    6    7 1
    13    7   30 1
    14    7   31 1
    15    7   32 1
    16    8   24 ar
    17    8    9 1
    18    9   10 2
    19    9   11 1
    20   11   12 2
    21   11   33 1
    22   12   13 1
    23   12   23 1
    24   13   22 ar
    25   13   14 ar
    26   14   15 ar
    27   14   34 1
    28   15   16 ar
    29   15   35 1
    30   16   17 1
    31   16   19 ar
    32   17   18 1
    33   18   36 1
    34   18   37 1
    35   18   38 1
    36   19   20 1
    37   19   22 ar
    38   20   21 1
    39   21   39 1
    40   21   40 1
    41   21   41 1
    42   22   42 1
    43   23   24 1
    44   24   25 ar
    45   25   43 1
@<TRIPOS>Similarity
1.1126
@<TRIPOS>ShapeSim
0.7352
@<TRIPOS>PharmSim
0.3775
# END
# Name:		C1=CC2=C(C(=C(C=C2Br)Br)O)N=C1
# Created and modified by SHAFTS on Sun Mar 21 16:57:45 2021

# 

@<TRIPOS>MOLECULE
C1=CC2=C(C(=C(C=C2Br)Br)O)N=C1
   17    18     0
SMALL
USER_CHARGE


@<TRIPOS>ATOM
      1 O1         -5.8684    1.3445    1.8670 O.3       1 <1>        -0.5051
      2 C2         -6.9443    0.5153    1.9061 C.ar      1 <1>         0.0128
      3 C3         -6.7708   -0.8788    1.7867 C.ar      1 <1>         0.0364
      4 N4         -5.5546   -1.4112    1.6345 N.ar      1 <1>        -0.3745
      5 C5         -5.3866   -2.7065    1.5233 C.ar      1 <1>        -0.0436
      6 C6         -6.4630   -3.5904    1.5583 C.ar      1 <1>        -0.0796
      7 C7         -7.7331   -3.1122    1.7116 C.ar      1 <1>        -0.0832
      8 C8         -7.9093   -1.7207    1.8306 C.ar      1 <1>        -0.0441
      9 C9         -9.1863   -1.1579    1.9909 C.ar      1 <1>        -0.0536
     10 Br10      -10.7124   -2.2731    2.0513 Br        1 <1>        -0.1679
     11 C11        -9.3231    0.1930    2.1031 C.ar      1 <1>        -0.0794
     12 C12        -8.2106    1.0303    2.0680 C.ar      1 <1>        -0.0066
     13 Br13       -8.4443    2.9001    2.2280 Br        1 <1>        -0.1565
     14 H14        -4.3878   -3.0987    1.4012 H         1 <1>         0.1820
     15 H15        -6.2932   -4.6528    1.4637 H         1 <1>         0.1126
     16 H16        -8.5789   -3.7832    1.7404 H         1 <1>         0.1260
     17 H17       -10.3074    0.6202    2.2258 H         1 <1>         0.1442
@<TRIPOS>BOND
     1    1    2 1
     2    2   12 ar
     3    2    3 ar
     4    3    8 ar
     5    3    4 ar
     6    4    5 ar
     7    5    6 ar
     8    5   14 1
     9    6    7 ar
    10    6   15 1
    11    7    8 ar
    12    7   16 1
    13    8    9 ar
    14    9   10 1
    15    9   11 ar
    16   11   12 ar
    17   11   17 1
    18   12   13 1
@<TRIPOS>Similarity
1.1124
@<TRIPOS>ShapeSim
0.6065
@<TRIPOS>PharmSim
0.5058
# END
# Name:		CC(=O)NC1=CC=C(C=C1)NC(=S)NC(=O)C2=CC=C(C=C2)C(C)(C)C
# Created and modified by SHAFTS on Sun Mar 21 16:57:45 2021

# 

@<TRIPOS>MOLECULE
CC(=O)NC1=CC=C(C=C1)NC(=S)NC(=O)C2=CC=C(C=C2)C(C)(C)C
   49    50     0
SMALL
USER_CHARGE


@<TRIPOS>ATOM
      1 C1          5.7890   -6.7167    1.7890 C.3       1 <1>         0.0505
      2 C2          4.5306   -5.8915    1.8682 C.2       1 <1>         0.0766
      3 O3          4.1931   -5.3999    2.9245 O.2       1 <1>        -0.4874
      4 N4          3.7801   -5.6995    0.7654 N.am      1 <1>        -0.3206
      5 C5          2.5788   -4.9839    0.8513 C.ar      1 <1>        -0.0530
      6 C6          1.4900   -5.3592    0.0755 C.ar      1 <1>        -0.0552
      7 C7          0.3063   -4.6539    0.1599 C.ar      1 <1>        -0.0492
      8 C8          0.2044   -3.5691    1.0211 C.ar      1 <1>        -0.0428
      9 N9         -0.9964   -2.8537    1.1070 N.am      1 <1>        -0.3230
     10 C10        -2.1708   -3.5127    1.1645 C.2       1 <1>        -0.0042
     11 S11        -2.2016   -5.2196    1.0360 S.2       1 <1>        -0.2711
     12 N12        -3.3207   -2.8279    1.3232 N.am      1 <1>        -0.2526
     13 C13        -4.4950   -3.4869    1.3806 C.2       1 <1>         0.1590
     14 O14        -4.5169   -4.6984    1.2894 O.2       1 <1>        -0.4008
     15 C15        -5.7558   -2.7360    1.5546 C.ar      1 <1>         0.0262
     16 C16        -5.7347   -1.3436    1.6539 C.ar      1 <1>        -0.0746
     17 C17        -6.9154   -0.6488    1.8157 C.ar      1 <1>        -0.0927
     18 C18        -8.1186   -1.3289    1.8800 C.ar      1 <1>        -0.1075
     19 C19        -9.4045   -0.5632    2.0569 C.3       1 <1>        -0.0612
     20 C20        -9.5868    0.4049    0.8862 C.3       1 <1>        -0.0615
     21 C21       -10.5797   -1.5421    2.0970 C.3       1 <1>        -0.0626
     22 C22        -9.3526    0.2251    3.3672 C.3       1 <1>        -0.0615
     23 C23        -8.1467   -2.7089    1.7822 C.ar      1 <1>        -0.0862
     24 C24        -6.9739   -3.4156    1.6144 C.ar      1 <1>        -0.0642
     25 C25         1.2933   -3.1940    1.7973 C.ar      1 <1>        -0.0594
     26 C26         2.4752   -3.9028    1.7167 C.ar      1 <1>        -0.0577
     27 H27         5.5517   -7.7613    1.9907 H         1 <1>         0.0959
     28 H28         6.2197   -6.6279    0.7916 H         1 <1>         0.0815
     29 H29         6.5059   -6.3579    2.5275 H         1 <1>         0.0959
     30 H30         4.0718   -6.0568   -0.0880 H         1 <1>         0.3180
     31 H31         1.5693   -6.2028   -0.5942 H         1 <1>         0.1294
     32 H32        -0.5402   -4.9454   -0.4441 H         1 <1>         0.1619
     33 H33        -0.9831   -1.8840    1.1252 H         1 <1>         0.3299
     34 H34        -3.3032   -1.8608    1.3960 H         1 <1>         0.3448
     35 H35        -4.7961   -0.8117    1.6045 H         1 <1>         0.1213
     36 H36        -6.9004    0.4283    1.8927 H         1 <1>         0.1237
     37 H37        -9.6238   -0.1568   -0.0473 H         1 <1>         0.0399
     38 H38       -10.5168    0.9587    1.0141 H         1 <1>         0.0399
     39 H39        -8.7496    1.1022    0.8576 H         1 <1>         0.0399
     40 H40       -10.4498   -2.2317    2.9309 H         1 <1>         0.0378
     41 H41       -11.5097   -0.9882    2.2248 H         1 <1>         0.0378
     42 H42       -10.6167   -2.1036    1.1634 H         1 <1>         0.0378
     43 H43        -8.5153    0.9225    3.3386 H         1 <1>         0.0399
     44 H44       -10.2826    0.7789    3.4951 H         1 <1>         0.0399
     45 H45        -9.2227   -0.4645    4.2011 H         1 <1>         0.0399
     46 H46        -9.0893   -3.2335    1.8335 H         1 <1>         0.1306
     47 H47        -6.9973   -4.4925    1.5379 H         1 <1>         0.1461
     48 H48         1.2141   -2.3503    2.4668 H         1 <1>         0.1349
     49 H49         3.3219   -3.6111    2.3203 H         1 <1>         0.1398
@<TRIPOS>BOND
     1    1    2 1
     2    1   27 1
     3    1   28 1
     4    1   29 1
     5    2    3 2
     6    2    4 am
     7    4    5 1
     8    4   30 1
     9    5   26 ar
    10    5    6 ar
    11    6    7 ar
    12    6   31 1
    13    7    8 ar
    14    7   32 1
    15    8    9 1
    16    8   25 ar
    17    9   10 am
    18    9   33 1
    19   10   11 2
    20   10   12 am
    21   12   13 am
    22   12   34 1
    23   13   14 2
    24   13   15 1
    25   15   24 ar
    26   15   16 ar
    27   16   17 ar
    28   16   35 1
    29   17   18 ar
    30   17   36 1
    31   18   19 1
    32   18   23 ar
    33   19   20 1
    34   19   21 1
    35   19   22 1
    36   20   37 1
    37   20   38 1
    38   20   39 1
    39   21   40 1
    40   21   41 1
    41   21   42 1
    42   22   43 1
    43   22   44 1
    44   22   45 1
    45   23   24 ar
    46   23   46 1
    47   24   47 1
    48   25   26 ar
    49   25   48 1
    50   26   49 1
@<TRIPOS>Similarity
1.1109
@<TRIPOS>ShapeSim
0.7881
@<TRIPOS>PharmSim
0.3227
# END
# Name:		CC(=O)NC1=CC=C(C=C1)NC(=S)NC(=O)C2=CC=C(C=C2)C(C)(C)C
# Created and modified by SHAFTS on Sun Mar 21 16:57:45 2021

# 

@<TRIPOS>MOLECULE
CC(=O)NC1=CC=C(C=C1)NC(=S)NC(=O)C2=CC=C(C=C2)C(C)(C)C
   49    50     0
SMALL
USER_CHARGE


@<TRIPOS>ATOM
      1 C1          5.7890   -6.7167    1.7890 C.3       1 <1>         0.0505
      2 C2          4.5306   -5.8915    1.8682 C.2       1 <1>         0.0766
      3 O3          4.1931   -5.3999    2.9245 O.2       1 <1>        -0.4874
      4 N4          3.7801   -5.6995    0.7654 N.am      1 <1>        -0.3206
      5 C5          2.5788   -4.9839    0.8513 C.ar      1 <1>        -0.0530
      6 C6          1.4900   -5.3592    0.0755 C.ar      1 <1>        -0.0552
      7 C7          0.3063   -4.6539    0.1599 C.ar      1 <1>        -0.0492
      8 C8          0.2044   -3.5691    1.0211 C.ar      1 <1>        -0.0428
      9 N9         -0.9964   -2.8537    1.1070 N.am      1 <1>        -0.3230
     10 C10        -2.1708   -3.5127    1.1645 C.2       1 <1>        -0.0042
     11 S11        -2.2016   -5.2196    1.0360 S.2       1 <1>        -0.2711
     12 N12        -3.3207   -2.8279    1.3232 N.am      1 <1>        -0.2526
     13 C13        -4.4950   -3.4869    1.3806 C.2       1 <1>         0.1590
     14 O14        -4.5169   -4.6984    1.2894 O.2       1 <1>        -0.4008
     15 C15        -5.7558   -2.7360    1.5546 C.ar      1 <1>         0.0262
     16 C16        -5.7347   -1.3436    1.6539 C.ar      1 <1>        -0.0746
     17 C17        -6.9154   -0.6488    1.8157 C.ar      1 <1>        -0.0927
     18 C18        -8.1186   -1.3289    1.8800 C.ar      1 <1>        -0.1075
     19 C19        -9.4045   -0.5632    2.0569 C.3       1 <1>        -0.0612
     20 C20        -9.5868    0.4049    0.8862 C.3       1 <1>        -0.0615
     21 C21       -10.5797   -1.5421    2.0970 C.3       1 <1>        -0.0626
     22 C22        -9.3526    0.2251    3.3672 C.3       1 <1>        -0.0615
     23 C23        -8.1467   -2.7089    1.7822 C.ar      1 <1>        -0.0862
     24 C24        -6.9739   -3.4156    1.6144 C.ar      1 <1>        -0.0642
     25 C25         1.2933   -3.1940    1.7973 C.ar      1 <1>        -0.0594
     26 C26         2.4752   -3.9028    1.7167 C.ar      1 <1>        -0.0577
     27 H27         5.5517   -7.7613    1.9907 H         1 <1>         0.0959
     28 H28         6.2197   -6.6279    0.7916 H         1 <1>         0.0815
     29 H29         6.5059   -6.3579    2.5275 H         1 <1>         0.0959
     30 H30         4.0718   -6.0568   -0.0880 H         1 <1>         0.3180
     31 H31         1.5693   -6.2028   -0.5942 H         1 <1>         0.1294
     32 H32        -0.5402   -4.9454   -0.4441 H         1 <1>         0.1619
     33 H33        -0.9831   -1.8840    1.1252 H         1 <1>         0.3299
     34 H34        -3.3032   -1.8608    1.3960 H         1 <1>         0.3448
     35 H35        -4.7961   -0.8117    1.6045 H         1 <1>         0.1213
     36 H36        -6.9004    0.4283    1.8927 H         1 <1>         0.1237
     37 H37        -9.6238   -0.1568   -0.0473 H         1 <1>         0.0399
     38 H38       -10.5168    0.9587    1.0141 H         1 <1>         0.0399
     39 H39        -8.7496    1.1022    0.8576 H         1 <1>         0.0399
     40 H40       -10.4498   -2.2317    2.9309 H         1 <1>         0.0378
     41 H41       -11.5097   -0.9882    2.2248 H         1 <1>         0.0378
     42 H42       -10.6167   -2.1036    1.1634 H         1 <1>         0.0378
     43 H43        -8.5153    0.9225    3.3386 H         1 <1>         0.0399
     44 H44       -10.2826    0.7789    3.4951 H         1 <1>         0.0399
     45 H45        -9.2227   -0.4645    4.2011 H         1 <1>         0.0399
     46 H46        -9.0893   -3.2335    1.8335 H         1 <1>         0.1306
     47 H47        -6.9973   -4.4925    1.5379 H         1 <1>         0.1461
     48 H48         1.2141   -2.3503    2.4668 H         1 <1>         0.1349
     49 H49         3.3219   -3.6111    2.3203 H         1 <1>         0.1398
@<TRIPOS>BOND
     1    1    2 1
     2    1   27 1
     3    1   28 1
     4    1   29 1
     5    2    3 2
     6    2    4 am
     7    4    5 1
     8    4   30 1
     9    5   26 ar
    10    5    6 ar
    11    6    7 ar
    12    6   31 1
    13    7    8 ar
    14    7   32 1
    15    8    9 1
    16    8   25 ar
    17    9   10 am
    18    9   33 1
    19   10   11 2
    20   10   12 am
    21   12   13 am
    22   12   34 1
    23   13   14 2
    24   13   15 1
    25   15   24 ar
    26   15   16 ar
    27   16   17 ar
    28   16   35 1
    29   17   18 ar
    30   17   36 1
    31   18   19 1
    32   18   23 ar
    33   19   20 1
    34   19   21 1
    35   19   22 1
    36   20   37 1
    37   20   38 1
    38   20   39 1
    39   21   40 1
    40   21   41 1
    41   21   42 1
    42   22   43 1
    43   22   44 1
    44   22   45 1
    45   23   24 ar
    46   23   46 1
    47   24   47 1
    48   25   26 ar
    49   25   48 1
    50   26   49 1
@<TRIPOS>Similarity
1.1109
@<TRIPOS>ShapeSim
0.7881
@<TRIPOS>PharmSim
0.3227
# END
# Name:		O=C(COC2=CC=C(CC)C=C2)N1CCCCC1
# Created and modified by SHAFTS on Sun Mar 21 16:57:45 2021

# 

@<TRIPOS>MOLECULE
O=C(COC2=CC=C(CC)C=C2)N1CCCCC1
   39    40     0
SMALL
USER_CHARGE


@<TRIPOS>ATOM
      1 C1          3.8487   -3.6177    1.9743 C.3       1 <1>        -0.0647
      2 C2          3.1303   -3.2706    0.6687 C.3       1 <1>        -0.0534
      3 C3          1.6754   -3.6474    0.7804 C.ar      1 <1>        -0.1176
      4 C4          1.2599   -4.9129    0.4095 C.ar      1 <1>        -0.0951
      5 C5         -0.0732   -5.2609    0.5109 C.ar      1 <1>        -0.0603
      6 C6         -0.9952   -4.3394    0.9859 C.ar      1 <1>        -0.0098
      7 O7         -2.3071   -4.6795    1.0870 O.3       1 <1>        -0.3834
      8 C8         -3.1997   -3.6804    1.5841 C.3       1 <1>         0.1352
      9 C9         -4.6007   -4.2343    1.6256 C.2       1 <1>         0.1253
     10 O10        -4.8137   -5.3725    1.2651 O.2       1 <1>        -0.4674
     11 N11        -5.6168   -3.4648    2.0635 N.am      1 <1>        -0.3593
     12 C12        -5.3754   -2.0821    2.4979 C.3       1 <1>        -0.0254
     13 C13        -6.3180   -1.1519    1.7280 C.3       1 <1>        -0.0496
     14 C14        -7.7610   -1.6264    1.9142 C.3       1 <1>        -0.0623
     15 C15        -7.9115   -3.0409    1.3500 C.3       1 <1>        -0.0483
     16 C16        -6.9879   -3.9908    2.1099 C.3       1 <1>        -0.0229
     17 C17        -0.5756   -3.0705    1.3579 C.ar      1 <1>        -0.0752
     18 C18         0.7593   -2.7290    1.2590 C.ar      1 <1>        -0.1060
     19 H19         3.7640   -4.6880    2.1621 H         1 <1>         0.0363
     20 H20         4.9009   -3.3450    1.8934 H         1 <1>         0.0363
     21 H21         3.3929   -3.0671    2.7972 H         1 <1>         0.0292
     22 H22         3.2149   -2.2003    0.4809 H         1 <1>         0.0579
     23 H23         3.5861   -3.8211   -0.1543 H         1 <1>         0.0579
     24 H24         1.9780   -5.6299    0.0398 H         1 <1>         0.1292
     25 H25        -0.3974   -6.2492    0.2203 H         1 <1>         0.1272
     26 H26        -2.8946   -3.3881    2.5889 H         1 <1>         0.1505
     27 H27        -3.1725   -2.8101    0.9284 H         1 <1>         0.1505
     28 H28        -5.5696   -1.9958    3.5670 H         1 <1>         0.1018
     29 H29        -4.3411   -1.8088    2.2891 H         1 <1>         0.1018
     30 H30        -6.2172   -0.1355    2.1088 H         1 <1>         0.0578
     31 H31        -6.0626   -1.1708    0.6685 H         1 <1>         0.0507
     32 H32        -8.0078   -1.6306    2.9759 H         1 <1>         0.0461
     33 H33        -8.4360   -0.9517    1.3874 H         1 <1>         0.0461
     34 H34        -8.9448   -3.3692    1.4618 H         1 <1>         0.0583
     35 H35        -7.6410   -3.0421    0.2941 H         1 <1>         0.0511
     36 H36        -7.0180   -4.9774    1.6477 H         1 <1>         0.1188
     37 H37        -7.3110   -4.0614    3.1485 H         1 <1>         0.0972
     38 H38        -1.2915   -2.3513    1.7277 H         1 <1>         0.1095
     39 H39         1.0865   -1.7415    1.5489 H         1 <1>         0.1262
@<TRIPOS>BOND
     1    1    2 1
     2    1   19 1
     3    1   20 1
     4    1   21 1
     5    2    3 1
     6    2   22 1
     7    2   23 1
     8    3   18 ar
     9    3    4 ar
    10    4    5 ar
    11    4   24 1
    12    5    6 ar
    13    5   25 1
    14    6    7 1
    15    6   17 ar
    16    7    8 1
    17    8    9 1
    18    8   26 1
    19    8   27 1
    20    9   10 2
    21    9   11 am
    22   11   16 1
    23   11   12 1
    24   12   13 1
    25   12   28 1
    26   12   29 1
    27   13   14 1
    28   13   30 1
    29   13   31 1
    30   14   15 1
    31   14   32 1
    32   14   33 1
    33   15   16 1
    34   15   34 1
    35   15   35 1
    36   16   36 1
    37   16   37 1
    38   17   18 ar
    39   17   38 1
    40   18   39 1
@<TRIPOS>Similarity
1.1108
@<TRIPOS>ShapeSim
0.7745
@<TRIPOS>PharmSim
0.3362
# END
# Name:		CC(C)NCC(COC1=CC=C(C=C1)CC(=O)N)O
# Created and modified by SHAFTS on Sun Mar 21 16:57:45 2021

# 

@<TRIPOS>MOLECULE
CC(C)NCC(COC1=CC=C(C=C1)CC(=O)N)O
   42    42     0
SMALL
USER_CHARGE


@<TRIPOS>ATOM
      1 C1          2.7363   -4.7102    0.9018 C.3       1 <1>        -0.0725
      2 C2          1.5846   -3.9250    1.5328 C.3       1 <1>        -0.1310
      3 C3          1.8341   -2.4256    1.3588 C.3       1 <1>        -0.0725
      4 N4          0.3236   -4.2914    0.8742 N.4       1 <1>         0.4267
      5 H5          0.3503   -3.9972   -0.0906 H         1 <1>         0.1549
      6 H6          0.1998   -5.2917    0.9175 H         1 <1>         0.1549
      7 C7         -0.7958   -3.6293    1.5573 C.3       1 <1>        -0.0782
      8 C8         -2.1092   -4.0108    0.8714 C.3       1 <1>        -0.0059
      9 H9         -2.0466   -3.7738   -0.1907 H         1 <1>         0.1470
     10 O10        -2.3421   -5.4113    1.0339 O.3       1 <1>        -0.4766
     11 C11        -3.2609   -3.2258    1.5023 C.3       1 <1>         0.0419
     12 O12        -4.4684   -3.4936    0.7866 O.3       1 <1>        -0.4106
     13 C13        -5.5947   -2.8700    1.2217 C.ar      1 <1>        -0.0137
     14 C14        -5.5378   -2.0132    2.3113 C.ar      1 <1>        -0.0731
     15 C15        -6.6841   -1.3801    2.7513 C.ar      1 <1>        -0.0937
     16 C16        -7.8875   -1.6000    2.1069 C.ar      1 <1>        -0.0753
     17 C17        -9.1365   -0.9084    2.5893 C.3       1 <1>         0.0658
     18 C18        -9.2856    0.4123    1.8789 C.2       1 <1>         0.0568
     19 N19       -10.3375    1.2094    2.1521 N.am      1 <1>        -0.3601
     20 O20        -8.4590    0.7579    1.0615 O.2       1 <1>        -0.5014
     21 C21        -7.9468   -2.4531    1.0204 C.ar      1 <1>        -0.0826
     22 C22        -6.8023   -3.0845    0.5733 C.ar      1 <1>        -0.0565
     23 H23         3.6720   -4.4384    1.3904 H         1 <1>         0.0674
     24 H24         2.5586   -5.7784    1.0258 H         1 <1>         0.0460
     25 H25         2.7988   -4.4731   -0.1603 H         1 <1>         0.0460
     26 H26         1.5221   -4.1621    2.5948 H         1 <1>         0.0910
     27 H27         2.7697   -2.1538    1.8474 H         1 <1>         0.0674
     28 H28         1.8965   -2.1885    0.2967 H         1 <1>         0.0460
     29 H29         1.0135   -1.8662    1.8081 H         1 <1>         0.0460
     30 H30        -0.8246   -3.9471    2.5995 H         1 <1>         0.0943
     31 H31        -0.6620   -2.5486    1.5104 H         1 <1>         0.1015
     32 H32        -2.4090   -5.6945    1.9560 H         1 <1>         0.3388
     33 H33        -3.3802   -3.5286    2.5425 H         1 <1>         0.1134
     34 H34        -3.0409   -2.1591    1.4574 H         1 <1>         0.1134
     35 H35        -4.5982   -1.8416    2.8154 H         1 <1>         0.1028
     36 H36        -6.6403   -0.7130    3.5995 H         1 <1>         0.1327
     37 H37       -10.0033   -1.5346    2.3779 H         1 <1>         0.1207
     38 H38        -9.0652   -0.7372    3.6634 H         1 <1>         0.1207
     39 H39       -10.9986    0.9330    2.8059 H         1 <1>         0.2668
     40 H40       -10.4335    2.0594    1.6949 H         1 <1>         0.2668
     41 H41        -8.8879   -2.6230    0.5186 H         1 <1>         0.1357
     42 H42        -6.8491   -3.7508   -0.2754 H         1 <1>         0.1281
@<TRIPOS>BOND
     1    1    2 1
     2    1   23 1
     3    1   24 1
     4    1   25 1
     5    2    3 1
     6    2    4 1
     7    2   26 1
     8    3   27 1
     9    3   28 1
    10    3   29 1
    11    4    5 1
    12    4    6 1
    13    4    7 1
    14    7    8 1
    15    7   30 1
    16    7   31 1
    17    8    9 1
    18    8   10 1
    19    8   11 1
    20   10   32 1
    21   11   12 1
    22   11   33 1
    23   11   34 1
    24   12   13 1
    25   13   22 ar
    26   13   14 ar
    27   14   15 ar
    28   14   35 1
    29   15   16 ar
    30   15   36 1
    31   16   17 1
    32   16   21 ar
    33   17   18 1
    34   17   37 1
    35   17   38 1
    36   18   19 am
    37   18   20 2
    38   19   39 1
    39   19   40 1
    40   21   22 ar
    41   21   41 1
    42   22   42 1
@<TRIPOS>Similarity
1.1038
@<TRIPOS>ShapeSim
0.7984
@<TRIPOS>PharmSim
0.3055
# END
# Name:		CCNC(=O)NC1=CC=C(C=C1)C2=NC3=C(C(=N2)N4CCOCC4)SC(=C3)C(C)(C)O
# Created and modified by SHAFTS on Sun Mar 21 16:57:45 2021

# 

@<TRIPOS>MOLECULE
CCNC(=O)NC1=CC=C(C=C1)C2=NC3=C(C(=N2)N4CCOCC4)SC(=C3)C(C)(C)O
   58    61     0
SMALL
USER_CHARGE


@<TRIPOS>ATOM
      1 C1          4.7201   -4.3372    1.8668 C.3       1 <1>        -0.0462
      2 C2          3.3959   -3.6121    2.1151 C.3       1 <1>        -0.0320
      3 N3          2.3151   -4.3182    1.4225 N.am      1 <1>        -0.3340
      4 C4          1.0509   -3.8575    1.5000 C.2       1 <1>         0.1201
      5 O5          0.8074   -2.8558    2.1447 O.2       1 <1>        -0.4786
      6 N6          0.0567   -4.5071    0.8629 N.am      1 <1>        -0.2895
      7 C7         -1.2665   -4.0866    1.0211 C.ar      1 <1>        -0.0405
      8 C8         -1.5533   -2.7329    1.1536 C.ar      1 <1>        -0.0480
      9 C9         -2.8575   -2.3157    1.3098 C.ar      1 <1>        -0.0499
     10 C10        -3.8900   -3.2530    1.3347 C.ar      1 <1>         0.0107
     11 C11        -5.2936   -2.8069    1.5020 C.ar      1 <1>         0.0514
     12 N12        -6.2583   -3.7214    1.5277 N.ar      1 <1>        -0.3602
     13 C13        -7.5263   -3.3635    1.6755 C.ar      1 <1>        -0.1216
     14 N14        -8.5282   -4.3201    1.7022 N.3       1 <1>         0.3931
     15 C15        -9.3202   -4.2192    2.9366 C.3       1 <1>        -0.1234
     16 C16       -10.4497   -5.2520    2.8977 C.3       1 <1>        -0.0076
     17 O17        -9.8906   -6.5560    2.7182 O.3       1 <1>        -0.4611
     18 C18        -9.1133   -6.6900    1.5252 C.3       1 <1>        -0.0087
     19 C19        -7.9702   -5.6717    1.5503 C.3       1 <1>        -0.1219
     20 C20        -7.8390   -1.9995    1.8053 C.ar      1 <1>         0.0354
     21 S21        -9.3750   -1.1702    2.0127 S.3       1 <1>        -0.0882
     22 C22        -8.5778    0.3936    2.0503 C.2       1 <1>        -0.0088
     23 C23        -9.2878    1.7126    2.2147 C.3       1 <1>        -0.0051
     24 C24       -10.6921    1.6141    1.6154 C.3       1 <1>        -0.0297
     25 C25        -9.3910    2.0541    3.7026 C.3       1 <1>        -0.0329
     26 O26        -8.5530    2.7363    1.5408 O.3       1 <1>        -0.4751
     27 C27        -7.2683    0.2563    1.9149 C.2       1 <1>        -0.0378
     28 C28        -6.8037   -1.0614    1.7744 C.ar      1 <1>        -0.0090
     29 N29        -5.5405   -1.5185    1.6252 N.ar      1 <1>        -0.3501
     30 C30        -3.5997   -4.6105    1.2014 C.ar      1 <1>        -0.0551
     31 C31        -2.2944   -5.0223    1.0398 C.ar      1 <1>        -0.0576
     32 H32         5.5242   -3.8118    2.3820 H         1 <1>         0.0548
     33 H33         4.6520   -5.3574    2.2444 H         1 <1>         0.0405
     34 H34         4.9273   -4.3588    0.7968 H         1 <1>         0.0405
     35 H35         3.1885   -3.5904    3.1850 H         1 <1>         0.0960
     36 H36         3.4638   -2.5919    1.7375 H         1 <1>         0.0960
     37 H37         2.5094   -5.1174    0.9082 H         1 <1>         0.2984
     38 H38         0.2595   -5.2665    0.2945 H         1 <1>         0.3252
     39 H39        -0.7533   -2.0075    1.1347 H         1 <1>         0.1484
     40 H40        -3.0798   -1.2639    1.4131 H         1 <1>         0.1496
     41 H41        -8.6796   -4.4127    3.7970 H         1 <1>         0.0507
     42 H42        -9.7447   -3.2184    3.0159 H         1 <1>         0.0650
     43 H43       -11.0047   -5.2198    3.8352 H         1 <1>         0.1333
     44 H44       -11.1207   -5.0265    2.0688 H         1 <1>         0.1043
     45 H45        -8.7018   -7.6978    1.4702 H         1 <1>         0.1312
     46 H46        -9.7454   -6.5063    0.6564 H         1 <1>         0.0950
     47 H47        -7.4093   -5.7313    0.6176 H         1 <1>         0.0743
     48 H48        -7.3080   -5.8884    2.3885 H         1 <1>         0.0528
     49 H49       -11.2526    0.8332    2.1295 H         1 <1>         0.0559
     50 H50       -11.2056    2.5681    1.7344 H         1 <1>         0.0631
     51 H51       -10.6185    1.3708    0.5555 H         1 <1>         0.0559
     52 H52        -8.3906    2.1243    4.1295 H         1 <1>         0.0495
     53 H53        -9.9046    3.0081    3.8215 H         1 <1>         0.0566
     54 H54        -9.9514    1.2733    4.2166 H         1 <1>         0.0495
     55 H55        -7.6514    2.8547    1.8697 H         1 <1>         0.3327
     56 H56        -6.5995    1.1043    1.9123 H         1 <1>         0.1489
     57 H57        -4.3975   -5.3382    1.2204 H         1 <1>         0.1482
     58 H58        -2.0690   -6.0735    0.9367 H         1 <1>         0.1256
@<TRIPOS>BOND
     1    1    2 1
     2    1   32 1
     3    1   33 1
     4    1   34 1
     5    2    3 1
     6    2   35 1
     7    2   36 1
     8    3    4 am
     9    3   37 1
    10    4    5 2
    11    4    6 am
    12    6    7 1
    13    6   38 1
    14    7   31 ar
    15    7    8 ar
    16    8    9 ar
    17    8   39 1
    18    9   10 ar
    19    9   40 1
    20   10   11 1
    21   10   30 ar
    22   11   29 ar
    23   11   12 ar
    24   12   13 ar
    25   13   14 1
    26   13   20 ar
    27   14   19 1
    28   14   15 1
    29   15   16 1
    30   15   41 1
    31   15   42 1
    32   16   17 1
    33   16   43 1
    34   16   44 1
    35   17   18 1
    36   18   19 1
    37   18   45 1
    38   18   46 1
    39   19   47 1
    40   19   48 1
    41   20   28 ar
    42   20   21 1
    43   21   22 1
    44   22   23 1
    45   22   27 2
    46   23   24 1
    47   23   25 1
    48   23   26 1
    49   24   49 1
    50   24   50 1
    51   24   51 1
    52   25   52 1
    53   25   53 1
    54   25   54 1
    55   26   55 1
    56   27   28 1
    57   27   56 1
    58   28   29 ar
    59   30   31 ar
    60   30   57 1
    61   31   58 1
@<TRIPOS>Similarity
1.1014
@<TRIPOS>ShapeSim
0.6976
@<TRIPOS>PharmSim
0.4038
# END
# Name:		CC(C)(O)C1=CC2=C(S1)C(N3CCOCC3)=NC(C4=CC=C(NC(NCC)=O)C=C4)=N2
# Created and modified by SHAFTS on Sun Mar 21 16:57:45 2021

# 

@<TRIPOS>MOLECULE
CC(C)(O)C1=CC2=C(S1)C(N3CCOCC3)=NC(C4=CC=C(NC(NCC)=O)C=C4)=N2
   58    61     0
SMALL
USER_CHARGE


@<TRIPOS>ATOM
      1 C1          4.7201   -4.3372    1.8668 C.3       1 <1>        -0.0462
      2 C2          3.3959   -3.6121    2.1151 C.3       1 <1>        -0.0320
      3 N3          2.3151   -4.3182    1.4225 N.am      1 <1>        -0.3340
      4 C4          1.0509   -3.8575    1.5000 C.2       1 <1>         0.1201
      5 O5          0.8074   -2.8558    2.1447 O.2       1 <1>        -0.4786
      6 N6          0.0567   -4.5071    0.8629 N.am      1 <1>        -0.2895
      7 C7         -1.2665   -4.0866    1.0211 C.ar      1 <1>        -0.0405
      8 C8         -1.5533   -2.7329    1.1536 C.ar      1 <1>        -0.0480
      9 C9         -2.8575   -2.3157    1.3098 C.ar      1 <1>        -0.0499
     10 C10        -3.8900   -3.2530    1.3347 C.ar      1 <1>         0.0107
     11 C11        -5.2936   -2.8069    1.5020 C.ar      1 <1>         0.0514
     12 N12        -6.2583   -3.7214    1.5277 N.ar      1 <1>        -0.3602
     13 C13        -7.5263   -3.3635    1.6755 C.ar      1 <1>        -0.1216
     14 N14        -8.5282   -4.3201    1.7022 N.3       1 <1>         0.3931
     15 C15        -9.3202   -4.2192    2.9366 C.3       1 <1>        -0.1234
     16 C16       -10.4497   -5.2520    2.8977 C.3       1 <1>        -0.0076
     17 O17        -9.8906   -6.5560    2.7182 O.3       1 <1>        -0.4611
     18 C18        -9.1133   -6.6900    1.5252 C.3       1 <1>        -0.0087
     19 C19        -7.9702   -5.6717    1.5503 C.3       1 <1>        -0.1219
     20 C20        -7.8390   -1.9995    1.8053 C.ar      1 <1>         0.0354
     21 S21        -9.3750   -1.1702    2.0127 S.3       1 <1>        -0.0882
     22 C22        -8.5778    0.3936    2.0503 C.2       1 <1>        -0.0088
     23 C23        -9.2878    1.7126    2.2147 C.3       1 <1>        -0.0051
     24 C24       -10.6921    1.6141    1.6154 C.3       1 <1>        -0.0297
     25 C25        -9.3910    2.0541    3.7026 C.3       1 <1>        -0.0329
     26 O26        -8.5530    2.7363    1.5408 O.3       1 <1>        -0.4751
     27 C27        -7.2683    0.2563    1.9149 C.2       1 <1>        -0.0378
     28 C28        -6.8037   -1.0614    1.7744 C.ar      1 <1>        -0.0090
     29 N29        -5.5405   -1.5185    1.6252 N.ar      1 <1>        -0.3501
     30 C30        -3.5997   -4.6105    1.2014 C.ar      1 <1>        -0.0551
     31 C31        -2.2944   -5.0223    1.0398 C.ar      1 <1>        -0.0576
     32 H32         5.5242   -3.8118    2.3820 H         1 <1>         0.0548
     33 H33         4.6520   -5.3574    2.2444 H         1 <1>         0.0405
     34 H34         4.9273   -4.3588    0.7968 H         1 <1>         0.0405
     35 H35         3.1885   -3.5904    3.1850 H         1 <1>         0.0960
     36 H36         3.4638   -2.5919    1.7375 H         1 <1>         0.0960
     37 H37         2.5094   -5.1174    0.9082 H         1 <1>         0.2984
     38 H38         0.2595   -5.2665    0.2945 H         1 <1>         0.3252
     39 H39        -0.7533   -2.0075    1.1347 H         1 <1>         0.1484
     40 H40        -3.0798   -1.2639    1.4131 H         1 <1>         0.1496
     41 H41        -8.6796   -4.4127    3.7970 H         1 <1>         0.0507
     42 H42        -9.7447   -3.2184    3.0159 H         1 <1>         0.0650
     43 H43       -11.0047   -5.2198    3.8352 H         1 <1>         0.1333
     44 H44       -11.1207   -5.0265    2.0688 H         1 <1>         0.1043
     45 H45        -8.7018   -7.6978    1.4702 H         1 <1>         0.1312
     46 H46        -9.7454   -6.5063    0.6564 H         1 <1>         0.0950
     47 H47        -7.4093   -5.7313    0.6176 H         1 <1>         0.0743
     48 H48        -7.3080   -5.8884    2.3885 H         1 <1>         0.0528
     49 H49       -11.2526    0.8332    2.1295 H         1 <1>         0.0559
     50 H50       -11.2056    2.5681    1.7344 H         1 <1>         0.0631
     51 H51       -10.6185    1.3708    0.5555 H         1 <1>         0.0559
     52 H52        -8.3906    2.1243    4.1295 H         1 <1>         0.0495
     53 H53        -9.9046    3.0081    3.8215 H         1 <1>         0.0566
     54 H54        -9.9514    1.2733    4.2166 H         1 <1>         0.0495
     55 H55        -7.6514    2.8547    1.8697 H         1 <1>         0.3327
     56 H56        -6.5995    1.1043    1.9123 H         1 <1>         0.1489
     57 H57        -4.3975   -5.3382    1.2204 H         1 <1>         0.1482
     58 H58        -2.0690   -6.0735    0.9367 H         1 <1>         0.1256
@<TRIPOS>BOND
     1    1    2 1
     2    1   32 1
     3    1   33 1
     4    1   34 1
     5    2    3 1
     6    2   35 1
     7    2   36 1
     8    3    4 am
     9    3   37 1
    10    4    5 2
    11    4    6 am
    12    6    7 1
    13    6   38 1
    14    7   31 ar
    15    7    8 ar
    16    8    9 ar
    17    8   39 1
    18    9   10 ar
    19    9   40 1
    20   10   11 1
    21   10   30 ar
    22   11   29 ar
    23   11   12 ar
    24   12   13 ar
    25   13   14 1
    26   13   20 ar
    27   14   19 1
    28   14   15 1
    29   15   16 1
    30   15   41 1
    31   15   42 1
    32   16   17 1
    33   16   43 1
    34   16   44 1
    35   17   18 1
    36   18   19 1
    37   18   45 1
    38   18   46 1
    39   19   47 1
    40   19   48 1
    41   20   28 ar
    42   20   21 1
    43   21   22 1
    44   22   23 1
    45   22   27 2
    46   23   24 1
    47   23   25 1
    48   23   26 1
    49   24   49 1
    50   24   50 1
    51   24   51 1
    52   25   52 1
    53   25   53 1
    54   25   54 1
    55   26   55 1
    56   27   28 1
    57   27   56 1
    58   28   29 ar
    59   30   31 ar
    60   30   57 1
    61   31   58 1
@<TRIPOS>Similarity
1.1014
@<TRIPOS>ShapeSim
0.6976
@<TRIPOS>PharmSim
0.4038
# END
# Name:		CC(C)(C)C1=CC=C(C=C1)C2=NC3=CC(=O)NN3C(=N2)SCCCOC4=CC=CC=C4
# Created and modified by SHAFTS on Sun Mar 21 16:57:45 2021

# 

@<TRIPOS>MOLECULE
CC(C)(C)C1=CC=C(C=C1)C2=NC3=CC(=O)NN3C(=N2)SCCCOC4=CC=CC=C4
   57    60     0
SMALL
USER_CHARGE


@<TRIPOS>ATOM
      1 C1          2.2780    3.8995    0.0501 C.3       1 <1>        -0.0613
      2 C2          1.6318    3.3786    1.3355 C.3       1 <1>        -0.0604
      3 C3          2.5309    3.7090    2.5285 C.3       1 <1>        -0.0613
      4 C4          0.2670    4.0436    1.5258 C.3       1 <1>        -0.0623
      5 C5          1.4539    1.8853    1.2389 C.ar      1 <1>        -0.1068
      6 C6          0.1869    1.3358    1.3201 C.ar      1 <1>        -0.0869
      7 C7          0.0175   -0.0307    1.2318 C.ar      1 <1>        -0.0622
      8 C8          1.1270   -0.8585    1.0604 C.ar      1 <1>         0.0148
      9 C9          0.9522   -2.3259    0.9645 C.2       1 <1>         0.0663
     10 N10         2.0176   -3.1004    0.8071 N.2       1 <1>        -0.3128
     11 C11         1.8754   -4.4264    0.7194 C.2       1 <1>         0.0638
     12 C12         2.7777   -5.4698    0.5573 C.2       1 <1>         0.0648
     13 C13         2.0505   -6.6609    0.5344 C.2       1 <1>         0.1246
     14 O14         2.5191   -7.7804    0.4072 O.2       1 <1>        -0.4735
     15 N15         0.7436   -6.3658    0.6772 N.am      1 <1>        -0.2479
     16 N16         0.6131   -4.9785    0.7941 N.pl3     1 <1>        -0.2328
     17 C17        -0.4630   -4.1545    0.9564 C.2       1 <1>         0.1298
     18 S18        -2.0890   -4.8262    1.0557 S.3       1 <1>        -0.0389
     19 C19        -3.0461   -3.3036    1.2602 C.3       1 <1>         0.0350
     20 C20        -4.5328   -3.6469    1.3716 C.3       1 <1>        -0.0129
     21 C21        -5.3419   -2.3598    1.5444 C.3       1 <1>         0.0227
     22 O22        -6.7306   -2.6805    1.6485 O.3       1 <1>        -0.4141
     23 C23        -7.5933   -1.6425    1.8073 C.ar      1 <1>        -0.0158
     24 C24        -7.1136   -0.3417    1.8561 C.ar      1 <1>        -0.0761
     25 C25        -7.9927    0.7118    2.0171 C.ar      1 <1>        -0.1090
     26 C26        -9.3494    0.4705    2.1301 C.ar      1 <1>        -0.1104
     27 C27        -9.8299   -0.8250    2.0822 C.ar      1 <1>        -0.0997
     28 C28        -8.9556   -1.8815    1.9152 C.ar      1 <1>        -0.0633
     29 N29        -0.2747   -2.8470    1.0435 N.2       1 <1>        -0.3023
     30 C30         2.4020   -0.2984    0.9792 C.ar      1 <1>        -0.0572
     31 C31         2.5578    1.0700    1.0635 C.ar      1 <1>        -0.0847
     32 H32         3.2503    3.4259   -0.0854 H         1 <1>         0.0400
     33 H33         1.6375    3.6642   -0.7997 H         1 <1>         0.0400
     34 H34         2.4066    4.9796    0.1200 H         1 <1>         0.0400
     35 H35         2.6595    4.7891    2.5984 H         1 <1>         0.0400
     36 H36         2.0704    3.3381    3.4442 H         1 <1>         0.0400
     37 H37         3.5032    3.2354    2.3929 H         1 <1>         0.0400
     38 H38        -0.3735    3.8082    0.6759 H         1 <1>         0.0378
     39 H39        -0.1934    3.6725    2.4415 H         1 <1>         0.0378
     40 H40         0.3957    5.1237    1.5957 H         1 <1>         0.0378
     41 H41        -0.6715    1.9778    1.4532 H         1 <1>         0.1282
     42 H42        -0.9722   -0.4585    1.2958 H         1 <1>         0.1384
     43 H43         3.8496   -5.3762    0.4652 H         1 <1>         0.1606
     44 H44         0.0162   -7.0072    0.6962 H         1 <1>         0.3857
     45 H45        -2.7228   -2.7901    2.1657 H         1 <1>         0.1006
     46 H46        -2.8864   -2.6556    0.3983 H         1 <1>         0.1006
     47 H47        -4.8561   -4.1604    0.4661 H         1 <1>         0.0747
     48 H48        -4.6925   -4.2949    2.2335 H         1 <1>         0.0747
     49 H49        -5.0187   -1.8464    2.4499 H         1 <1>         0.1056
     50 H50        -5.1822   -1.7119    0.6825 H         1 <1>         0.1056
     51 H51        -6.0538   -0.1527    1.7685 H         1 <1>         0.1097
     52 H52        -7.6197    1.7247    2.0551 H         1 <1>         0.1247
     53 H53       -10.0350    1.2955    2.2562 H         1 <1>         0.1044
     54 H54       -10.8901   -1.0110    2.1711 H         1 <1>         0.1273
     55 H55        -9.3313   -2.8933    1.8779 H         1 <1>         0.1248
     56 H56         3.2649   -0.9341    0.8465 H         1 <1>         0.1489
     57 H57         3.5444    1.5049    1.0006 H         1 <1>         0.1236
@<TRIPOS>BOND
     1    1    2 1
     2    1   32 1
     3    1   33 1
     4    1   34 1
     5    2    3 1
     6    2    4 1
     7    2    5 1
     8    3   35 1
     9    3   36 1
    10    3   37 1
    11    4   38 1
    12    4   39 1
    13    4   40 1
    14    5   31 ar
    15    5    6 ar
    16    6    7 ar
    17    6   41 1
    18    7    8 ar
    19    7   42 1
    20    8    9 1
    21    8   30 ar
    22    9   29 1
    23    9   10 2
    24   10   11 1
    25   11   16 1
    26   11   12 2
    27   12   13 1
    28   12   43 1
    29   13   14 2
    30   13   15 am
    31   15   16 1
    32   15   44 1
    33   16   17 1
    34   17   18 1
    35   17   29 2
    36   18   19 1
    37   19   20 1
    38   19   45 1
    39   19   46 1
    40   20   21 1
    41   20   47 1
    42   20   48 1
    43   21   22 1
    44   21   49 1
    45   21   50 1
    46   22   23 1
    47   23   28 ar
    48   23   24 ar
    49   24   25 ar
    50   24   51 1
    51   25   26 ar
    52   25   52 1
    53   26   27 ar
    54   26   53 1
    55   27   28 ar
    56   27   54 1
    57   28   55 1
    58   30   31 ar
    59   30   56 1
    60   31   57 1
@<TRIPOS>Similarity
1.1012
@<TRIPOS>ShapeSim
0.7701
@<TRIPOS>PharmSim
0.3311
# END
# Name:		O=C1C=C(C2=CC=C(O)C=C2)OC3=CC(O)=CC(OC)=C13
# Created and modified by SHAFTS on Sun Mar 21 16:57:45 2021

# 

@<TRIPOS>MOLECULE
O=C1C=C(C2=CC=C(O)C=C2)OC3=CC(O)=CC(OC)=C13
   32    34     0
SMALL
USER_CHARGE


@<TRIPOS>ATOM
      1 C1         -0.8306   -5.5922    0.8880 C.3       1 <1>         0.0262
      2 O2         -2.1351   -5.0300    1.0443 O.3       1 <1>        -0.4070
      3 C3         -2.2161   -3.6789    1.1412 C.ar      1 <1>         0.0018
      4 C4         -1.0710   -2.9064    1.0822 C.ar      1 <1>        -0.0410
      5 C5         -1.1562   -1.5219    1.1817 C.ar      1 <1>        -0.0718
      6 O6         -0.0256   -0.7727    1.1221 O.3       1 <1>        -0.5729
      7 C7         -2.3844   -0.8993    1.3409 C.ar      1 <1>        -0.0282
      8 C8         -3.5437   -1.6570    1.4027 C.ar      1 <1>         0.0320
      9 C9         -3.4609   -3.0559    1.2962 C.ar      1 <1>         0.0451
     10 C10        -4.7053   -3.8407    1.3647 C.2       1 <1>         0.0613
     11 O11        -4.6928   -5.0579    1.2782 O.2       1 <1>        -0.4954
     12 C12        -5.9160   -3.1281    1.5352 C.2       1 <1>         0.0116
     13 C13        -5.8882   -1.7714    1.6278 C.2       1 <1>         0.0468
     14 C14        -7.1604   -1.0462    1.8053 C.ar      1 <1>        -0.0248
     15 C15        -8.3645   -1.7519    1.8814 C.ar      1 <1>        -0.0680
     16 C16        -9.5500   -1.0710    2.0477 C.ar      1 <1>        -0.0618
     17 C17        -9.5503    0.3158    2.1393 C.ar      1 <1>        -0.0400
     18 O18       -10.7212    0.9831    2.3027 O.3       1 <1>        -0.4398
     19 C19        -8.3553    1.0213    2.0646 C.ar      1 <1>        -0.0635
     20 C20        -7.1646    0.3480    1.9037 C.ar      1 <1>        -0.0683
     21 O21        -4.7476   -1.0665    1.5578 O.3       1 <1>        -0.3410
     22 H22        -0.2137   -5.3226    1.7452 H         1 <1>         0.0855
     23 H23        -0.9081   -6.6775    0.8231 H         1 <1>         0.1144
     24 H24        -0.3751   -5.2053   -0.0236 H         1 <1>         0.0855
     25 H25        -0.1079   -3.3794    0.9588 H         1 <1>         0.0877
     26 H26        -2.4382    0.1767    1.4171 H         1 <1>         0.1015
     27 H27        -6.8554   -3.6579    1.5911 H         1 <1>         0.1272
     28 H28        -8.3654   -2.8295    1.8096 H         1 <1>         0.1429
     29 H29       -10.4810   -1.6154    2.1066 H         1 <1>         0.1323
     30 H30       -10.9711    1.1185    3.2271 H         1 <1>         0.3541
     31 H31        -8.3600    2.0989    2.1366 H         1 <1>         0.1248
     32 H32        -6.2364    0.8970    1.8462 H         1 <1>         0.1428
@<TRIPOS>BOND
     1    1    2 1
     2    1   22 1
     3    1   23 1
     4    1   24 1
     5    2    3 1
     6    3    9 ar
     7    3    4 ar
     8    4    5 ar
     9    4   25 1
    10    5    6 1
    11    5    7 ar
    12    7    8 ar
    13    7   26 1
    14    8   21 1
    15    8    9 ar
    16    9   10 1
    17   10   11 2
    18   10   12 1
    19   12   13 2
    20   12   27 1
    21   13   14 1
    22   13   21 1
    23   14   20 ar
    24   14   15 ar
    25   15   16 ar
    26   15   28 1
    27   16   17 ar
    28   16   29 1
    29   17   18 1
    30   17   19 ar
    31   18   30 1
    32   19   20 ar
    33   19   31 1
    34   20   32 1
@<TRIPOS>Similarity
1.1009
@<TRIPOS>ShapeSim
0.7400
@<TRIPOS>PharmSim
0.3610
# END
# Name:		C1=CC=C(C=C1)C2=CC(=O)C3=C(C=C(C=C3O2)O)O
# Created and modified by SHAFTS on Sun Mar 21 16:57:45 2021

# 

@<TRIPOS>MOLECULE
C1=CC=C(C=C1)C2=CC(=O)C3=C(C=C(C=C3O2)O)O
   28    30     0
SMALL
USER_CHARGE


@<TRIPOS>ATOM
      1 O1         -2.0755   -5.3211    1.0162 O.2       1 <1>        -0.4955
      2 C2         -2.4907   -4.1806    1.1417 C.2       1 <1>         0.0597
      3 C3         -3.8737   -3.9128    1.2898 C.2       1 <1>         0.0128
      4 C4         -4.2965   -2.6287    1.4275 C.2       1 <1>         0.0471
      5 C5         -5.7424   -2.3700    1.5811 C.ar      1 <1>        -0.0277
      6 C6         -6.6481   -3.4329    1.5891 C.ar      1 <1>        -0.0788
      7 C7         -7.9972   -3.1840    1.7330 C.ar      1 <1>        -0.0995
      8 C8         -8.4537   -1.8849    1.8687 C.ar      1 <1>        -0.1053
      9 C9         -7.5618   -0.8269    1.8611 C.ar      1 <1>        -0.0976
     10 C10        -6.2095   -1.0618    1.7247 C.ar      1 <1>        -0.0751
     11 O11        -3.4507   -1.5865    1.4297 O.3       1 <1>        -0.3427
     12 C12        -2.1165   -1.7402    1.2949 C.ar      1 <1>         0.0276
     13 C13        -1.2715   -0.6417    1.3021 C.ar      1 <1>        -0.0296
     14 C14         0.0968   -0.8176    1.1629 C.ar      1 <1>        -0.0633
     15 O15         0.9178    0.2634    1.1714 O.3       1 <1>        -0.5675
     16 C16         0.6363   -2.0907    1.0153 C.ar      1 <1>        -0.0359
     17 C17        -0.1907   -3.1989    1.0057 C.ar      1 <1>        -0.0245
     18 O18         0.3339   -4.4421    0.8616 O.3       1 <1>        -0.4308
     19 C19        -1.5731   -3.0290    1.1515 C.ar      1 <1>         0.0344
     20 H20        -4.5872   -4.7234    1.2929 H         1 <1>         0.1277
     21 H21        -6.2932   -4.4474    1.4826 H         1 <1>         0.1307
     22 H22        -8.6988   -4.0050    1.7394 H         1 <1>         0.1211
     23 H23        -9.5111   -1.6956    1.9806 H         1 <1>         0.1143
     24 H24        -7.9251    0.1847    1.9668 H         1 <1>         0.1215
     25 H25        -5.5144   -0.2353    1.7191 H         1 <1>         0.1408
     26 H26        -1.6791    0.3519    1.4158 H         1 <1>         0.1024
     27 H27         1.7038   -2.2141    0.9073 H         1 <1>         0.1029
     28 H28         0.5664   -4.8701    1.6970 H         1 <1>         0.3510
@<TRIPOS>BOND
     1    1    2 2
     2    2   19 1
     3    2    3 1
     4    3    4 2
     5    3   20 1
     6    4    5 1
     7    4   11 1
     8    5   10 ar
     9    5    6 ar
    10    6    7 ar
    11    6   21 1
    12    7    8 ar
    13    7   22 1
    14    8    9 ar
    15    8   23 1
    16    9   10 ar
    17    9   24 1
    18   10   25 1
    19   11   12 1
    20   12   19 ar
    21   12   13 ar
    22   13   14 ar
    23   13   26 1
    24   14   15 1
    25   14   16 ar
    26   16   17 ar
    27   16   27 1
    28   17   18 1
    29   17   19 ar
    30   18   28 1
@<TRIPOS>Similarity
1.0996
@<TRIPOS>ShapeSim
0.7689
@<TRIPOS>PharmSim
0.3307
# END
# Name:		C1=CC=C(C=C1)C2=CC(=O)C3=C(C=C(C=C3O2)O)O
# Created and modified by SHAFTS on Sun Mar 21 16:57:45 2021

# 

@<TRIPOS>MOLECULE
C1=CC=C(C=C1)C2=CC(=O)C3=C(C=C(C=C3O2)O)O
   28    30     0
SMALL
USER_CHARGE


@<TRIPOS>ATOM
      1 O1         -2.0755   -5.3211    1.0162 O.2       1 <1>        -0.4955
      2 C2         -2.4907   -4.1806    1.1417 C.2       1 <1>         0.0597
      3 C3         -3.8737   -3.9128    1.2898 C.2       1 <1>         0.0128
      4 C4         -4.2965   -2.6287    1.4275 C.2       1 <1>         0.0471
      5 C5         -5.7424   -2.3700    1.5811 C.ar      1 <1>        -0.0277
      6 C6         -6.6481   -3.4329    1.5891 C.ar      1 <1>        -0.0788
      7 C7         -7.9972   -3.1840    1.7330 C.ar      1 <1>        -0.0995
      8 C8         -8.4537   -1.8849    1.8687 C.ar      1 <1>        -0.1053
      9 C9         -7.5618   -0.8269    1.8611 C.ar      1 <1>        -0.0976
     10 C10        -6.2095   -1.0618    1.7247 C.ar      1 <1>        -0.0751
     11 O11        -3.4507   -1.5865    1.4297 O.3       1 <1>        -0.3427
     12 C12        -2.1165   -1.7402    1.2949 C.ar      1 <1>         0.0276
     13 C13        -1.2715   -0.6417    1.3021 C.ar      1 <1>        -0.0296
     14 C14         0.0968   -0.8176    1.1629 C.ar      1 <1>        -0.0633
     15 O15         0.9178    0.2634    1.1714 O.3       1 <1>        -0.5675
     16 C16         0.6363   -2.0907    1.0153 C.ar      1 <1>        -0.0359
     17 C17        -0.1907   -3.1989    1.0057 C.ar      1 <1>        -0.0245
     18 O18         0.3339   -4.4421    0.8616 O.3       1 <1>        -0.4308
     19 C19        -1.5731   -3.0290    1.1515 C.ar      1 <1>         0.0344
     20 H20        -4.5872   -4.7234    1.2929 H         1 <1>         0.1277
     21 H21        -6.2932   -4.4474    1.4826 H         1 <1>         0.1307
     22 H22        -8.6988   -4.0050    1.7394 H         1 <1>         0.1211
     23 H23        -9.5111   -1.6956    1.9806 H         1 <1>         0.1143
     24 H24        -7.9251    0.1847    1.9668 H         1 <1>         0.1215
     25 H25        -5.5144   -0.2353    1.7191 H         1 <1>         0.1408
     26 H26        -1.6791    0.3519    1.4158 H         1 <1>         0.1024
     27 H27         1.7038   -2.2141    0.9073 H         1 <1>         0.1029
     28 H28         0.5664   -4.8701    1.6970 H         1 <1>         0.3510
@<TRIPOS>BOND
     1    1    2 2
     2    2   19 1
     3    2    3 1
     4    3    4 2
     5    3   20 1
     6    4    5 1
     7    4   11 1
     8    5   10 ar
     9    5    6 ar
    10    6    7 ar
    11    6   21 1
    12    7    8 ar
    13    7   22 1
    14    8    9 ar
    15    8   23 1
    16    9   10 ar
    17    9   24 1
    18   10   25 1
    19   11   12 1
    20   12   19 ar
    21   12   13 ar
    22   13   14 ar
    23   13   26 1
    24   14   15 1
    25   14   16 ar
    26   16   17 ar
    27   16   27 1
    28   17   18 1
    29   17   19 ar
    30   18   28 1
@<TRIPOS>Similarity
1.0996
@<TRIPOS>ShapeSim
0.7689
@<TRIPOS>PharmSim
0.3307
# END
# Name:		O=C1C=C(OC2=CC(O)=CC(O)=C21)C3=CC=CC=C3
# Created and modified by SHAFTS on Sun Mar 21 16:57:45 2021

# 

@<TRIPOS>MOLECULE
O=C1C=C(OC2=CC(O)=CC(O)=C21)C3=CC=CC=C3
   28    30     0
SMALL
USER_CHARGE


@<TRIPOS>ATOM
      1 O1         -2.0755   -5.3211    1.0162 O.2       1 <1>        -0.4955
      2 C2         -2.4907   -4.1806    1.1417 C.2       1 <1>         0.0597
      3 C3         -3.8737   -3.9128    1.2898 C.2       1 <1>         0.0128
      4 C4         -4.2965   -2.6287    1.4275 C.2       1 <1>         0.0471
      5 C5         -5.7424   -2.3700    1.5811 C.ar      1 <1>        -0.0277
      6 C6         -6.6481   -3.4329    1.5891 C.ar      1 <1>        -0.0788
      7 C7         -7.9972   -3.1840    1.7330 C.ar      1 <1>        -0.0995
      8 C8         -8.4537   -1.8849    1.8687 C.ar      1 <1>        -0.1053
      9 C9         -7.5618   -0.8269    1.8611 C.ar      1 <1>        -0.0976
     10 C10        -6.2095   -1.0618    1.7247 C.ar      1 <1>        -0.0751
     11 O11        -3.4507   -1.5865    1.4297 O.3       1 <1>        -0.3427
     12 C12        -2.1165   -1.7402    1.2949 C.ar      1 <1>         0.0276
     13 C13        -1.2715   -0.6417    1.3021 C.ar      1 <1>        -0.0296
     14 C14         0.0968   -0.8176    1.1629 C.ar      1 <1>        -0.0633
     15 O15         0.9178    0.2634    1.1714 O.3       1 <1>        -0.5675
     16 C16         0.6363   -2.0907    1.0153 C.ar      1 <1>        -0.0359
     17 C17        -0.1907   -3.1989    1.0057 C.ar      1 <1>        -0.0245
     18 O18         0.3339   -4.4421    0.8616 O.3       1 <1>        -0.4308
     19 C19        -1.5731   -3.0290    1.1515 C.ar      1 <1>         0.0344
     20 H20        -4.5872   -4.7234    1.2929 H         1 <1>         0.1277
     21 H21        -6.2932   -4.4474    1.4826 H         1 <1>         0.1307
     22 H22        -8.6988   -4.0050    1.7394 H         1 <1>         0.1211
     23 H23        -9.5111   -1.6956    1.9806 H         1 <1>         0.1143
     24 H24        -7.9251    0.1847    1.9668 H         1 <1>         0.1215
     25 H25        -5.5144   -0.2353    1.7191 H         1 <1>         0.1408
     26 H26        -1.6791    0.3519    1.4158 H         1 <1>         0.1024
     27 H27         1.7038   -2.2141    0.9073 H         1 <1>         0.1029
     28 H28         0.5664   -4.8701    1.6970 H         1 <1>         0.3510
@<TRIPOS>BOND
     1    1    2 2
     2    2   19 1
     3    2    3 1
     4    3    4 2
     5    3   20 1
     6    4    5 1
     7    4   11 1
     8    5   10 ar
     9    5    6 ar
    10    6    7 ar
    11    6   21 1
    12    7    8 ar
    13    7   22 1
    14    8    9 ar
    15    8   23 1
    16    9   10 ar
    17    9   24 1
    18   10   25 1
    19   11   12 1
    20   12   19 ar
    21   12   13 ar
    22   13   14 ar
    23   13   26 1
    24   14   15 1
    25   14   16 ar
    26   16   17 ar
    27   16   27 1
    28   17   18 1
    29   17   19 ar
    30   18   28 1
@<TRIPOS>Similarity
1.0996
@<TRIPOS>ShapeSim
0.7689
@<TRIPOS>PharmSim
0.3307
# END
# Name:		ClC1=CC(C2=NN=C(SCC(C3=CC(O)=C(O)C=C3)=O)N2CC=C)=CC=C1
# Created and modified by SHAFTS on Sun Mar 21 16:57:45 2021

# 

@<TRIPOS>MOLECULE
ClC1=CC(C2=NN=C(SCC(C3=CC(O)=C(O)C=C3)=O)N2CC=C)=CC=C1
   43    45     0
SMALL
USER_CHARGE


@<TRIPOS>ATOM
      1 C1          0.3055   -7.6507    2.4158 C.2       1 <1>        -0.1198
      2 C2          1.0312   -6.6204    2.0579 C.2       1 <1>        -0.1098
      3 C3          0.8515   -6.0102    0.6918 C.3       1 <1>         0.0099
      4 N4          0.5676   -4.5796    0.8295 N.pl3     1 <1>        -0.3069
      5 C5         -0.6551   -3.9926    0.9884 C.2       1 <1>         0.0903
      6 S6         -2.2091   -4.8194    1.0672 S.3       1 <1>        -0.0587
      7 C7         -3.3105   -3.3990    1.2803 C.3       1 <1>         0.1193
      8 C8         -4.7361   -3.8784    1.3745 C.2       1 <1>         0.1014
      9 O9         -4.9832   -5.0638    1.3044 O.2       1 <1>        -0.4464
     10 C10        -5.8261   -2.9102    1.5512 C.ar      1 <1>         0.0042
     11 C11        -5.5439   -1.5414    1.6266 C.ar      1 <1>        -0.0687
     12 C12        -6.5681   -0.6357    1.7923 C.ar      1 <1>        -0.0515
     13 C13        -7.8817   -1.0766    1.8850 C.ar      1 <1>         0.0033
     14 O14        -8.8869   -0.1790    2.0483 O.3       1 <1>        -0.4251
     15 C15        -8.1714   -2.4394    1.8102 C.ar      1 <1>         0.0079
     16 O16        -9.4595   -2.8665    1.9006 O.3       1 <1>        -0.4265
     17 C17        -7.1520   -3.3536    1.6389 C.ar      1 <1>        -0.0330
     18 N18        -0.4568   -2.6959    1.0718 N.2       1 <1>        -0.2740
     19 N19         0.7978   -2.4345    0.9763 N.2       1 <1>        -0.2669
     20 C20         1.4778   -3.5479    0.8315 C.2       1 <1>         0.0690
     21 C21         2.9442   -3.6696    0.6886 C.ar      1 <1>        -0.0011
     22 C22         3.7061   -2.5619    0.3141 C.ar      1 <1>        -0.0570
     23 C23         5.0745   -2.6814    0.1824 C.ar      1 <1>        -0.0790
     24 C24         5.6920   -3.8960    0.4205 C.ar      1 <1>        -0.0669
     25 C25         4.9423   -4.9997    0.7920 C.ar      1 <1>        -0.0079
     26 Cl26        5.7264   -6.5197    1.0886 Cl        1 <1>        -0.1387
     27 C27         3.5732   -4.8914    0.9333 C.ar      1 <1>        -0.0429
     28 H28         0.4343   -8.0880    3.3948 H         1 <1>         0.0992
     29 H29        -0.4246   -8.0600    1.7332 H         1 <1>         0.0992
     30 H30         1.7582   -6.2083    2.7421 H         1 <1>         0.0971
     31 H31         1.7638   -6.1454    0.1107 H         1 <1>         0.1372
     32 H32         0.0206   -6.4982    0.1823 H         1 <1>         0.1372
     33 H33        -3.0448   -2.8672    2.1940 H         1 <1>         0.1403
     34 H34        -3.2082   -2.7286    0.4270 H         1 <1>         0.1403
     35 H35        -4.5232   -1.1956    1.5551 H         1 <1>         0.1424
     36 H36        -6.3489    0.4203    1.8507 H         1 <1>         0.1359
     37 H37        -9.2620    0.1466    1.2186 H         1 <1>         0.3660
     38 H38        -9.9153   -2.9242    1.0497 H         1 <1>         0.3592
     39 H39        -7.3751   -4.4087    1.5806 H         1 <1>         0.1571
     40 H40         3.2256   -1.6129    0.1275 H         1 <1>         0.1471
     41 H41         5.6647   -1.8248   -0.1077 H         1 <1>         0.1362
     42 H42         6.7633   -3.9842    0.3160 H         1 <1>         0.1405
     43 H43         2.9891   -5.7524    1.2229 H         1 <1>         0.1409
@<TRIPOS>BOND
     1    1    2 2
     2    1   28 1
     3    1   29 1
     4    2    3 1
     5    2   30 1
     6    3    4 1
     7    3   31 1
     8    3   32 1
     9    4   20 1
    10    4    5 1
    11    5    6 1
    12    5   18 2
    13    6    7 1
    14    7    8 1
    15    7   33 1
    16    7   34 1
    17    8    9 2
    18    8   10 1
    19   10   17 ar
    20   10   11 ar
    21   11   12 ar
    22   11   35 1
    23   12   13 ar
    24   12   36 1
    25   13   14 1
    26   13   15 ar
    27   14   37 1
    28   15   16 1
    29   15   17 ar
    30   16   38 1
    31   17   39 1
    32   18   19 1
    33   19   20 2
    34   20   21 1
    35   21   27 ar
    36   21   22 ar
    37   22   23 ar
    38   22   40 1
    39   23   24 ar
    40   23   41 1
    41   24   25 ar
    42   24   42 1
    43   25   26 1
    44   25   27 ar
    45   27   43 1
@<TRIPOS>Similarity
1.0987
@<TRIPOS>ShapeSim
0.7531
@<TRIPOS>PharmSim
0.3456
# END
# Name:		C1=CC2=C(C=CC(=C2N=C1)O)[N+](=O)[O-]
# Created and modified by SHAFTS on Sun Mar 21 16:57:45 2021

# 

@<TRIPOS>MOLECULE
C1=CC2=C(C=CC(=C2N=C1)O)[N+](=O)[O-]
   19    20     0
SMALL
USER_CHARGE


@<TRIPOS>ATOM
      1 O1        -11.3210   -1.3366    1.5266 O.2       1 <1>        -0.2680
      2 N2        -10.3084   -1.7623    2.0526 N.pl3     1 <1>        -0.0329
      3 O3        -10.3242   -2.8392    2.6215 O.2       1 <1>        -0.2680
      4 C4         -9.0569   -0.9737    1.9955 C.ar      1 <1>         0.0641
      5 C5         -7.8222   -1.6218    1.8310 C.ar      1 <1>        -0.0174
      6 C6         -7.7393   -3.0226    1.7169 C.ar      1 <1>        -0.0770
      7 C7         -6.5044   -3.5841    1.5586 C.ar      1 <1>        -0.0745
      8 C8         -5.3724   -2.7729    1.5140 C.ar      1 <1>        -0.0394
      9 N9         -5.4537   -1.4690    1.6209 N.ar      1 <1>        -0.3720
     10 C10        -6.6310   -0.8570    1.7772 C.ar      1 <1>         0.0394
     11 C11        -6.7127    0.5466    1.8911 C.ar      1 <1>         0.0009
     12 O12        -5.5850    1.3024    1.8431 O.3       1 <1>        -0.5130
     13 C13        -7.9321    1.1416    2.0497 C.ar      1 <1>        -0.0465
     14 C14        -9.0989    0.3840    2.0965 C.ar      1 <1>        -0.0638
     15 H15        -8.6273   -3.6360    1.7540 H         1 <1>         0.1321
     16 H16        -6.4055   -4.6557    1.4684 H         1 <1>         0.1228
     17 H17        -4.4023   -3.2306    1.3884 H         1 <1>         0.1852
     18 H18        -7.9920    2.2164    2.1367 H         1 <1>         0.1020
     19 H19       -10.0504    0.8792    2.2227 H         1 <1>         0.1461
@<TRIPOS>BOND
     1    1    2 2
     2    2    3 2
     3    2    4 1
     4    4   14 ar
     5    4    5 ar
     6    5   10 ar
     7    5    6 ar
     8    6    7 ar
     9    6   15 1
    10    7    8 ar
    11    7   16 1
    12    8    9 ar
    13    8   17 1
    14    9   10 ar
    15   10   11 ar
    16   11   12 1
    17   11   13 ar
    18   13   14 ar
    19   13   18 1
    20   14   19 1
@<TRIPOS>Similarity
1.0976
@<TRIPOS>ShapeSim
0.6022
@<TRIPOS>PharmSim
0.4954
# END
# Name:		C1=CC(=CC=C1C2=CC(=O)C3=C(C=C(C=C3O2)O)O)O
# Created and modified by SHAFTS on Sun Mar 21 16:57:45 2021

# 

@<TRIPOS>MOLECULE
C1=CC(=CC=C1C2=CC(=O)C3=C(C=C(C=C3O2)O)O)O
   29    31     0
SMALL
USER_CHARGE


@<TRIPOS>ATOM
      1 O1         -1.9396   -5.3135    1.0046 O.2       1 <1>        -0.4955
      2 C2         -2.2865   -4.1496    1.1250 C.2       1 <1>         0.0597
      3 C3         -3.6494   -3.8006    1.2772 C.2       1 <1>         0.0129
      4 C4         -3.9959   -2.4919    1.4090 C.2       1 <1>         0.0481
      5 C5         -5.4216   -2.1481    1.5665 C.ar      1 <1>        -0.0232
      6 C6         -6.3882   -3.1576    1.5845 C.ar      1 <1>        -0.0676
      7 C7         -7.7183   -2.8321    1.7323 C.ar      1 <1>        -0.0618
      8 C8         -8.1000   -1.5022    1.8630 C.ar      1 <1>        -0.0400
      9 O9         -9.4121   -1.1858    2.0081 O.3       1 <1>        -0.4398
     10 C10        -7.1422   -0.4954    1.8462 C.ar      1 <1>        -0.0635
     11 C11        -5.8094   -0.8123    1.7042 C.ar      1 <1>        -0.0679
     12 O12        -3.0899   -1.5012    1.4015 O.3       1 <1>        -0.3426
     13 C13        -1.7675   -1.7345    1.2621 C.ar      1 <1>         0.0276
     14 C14        -0.8589   -0.6881    1.2594 C.ar      1 <1>        -0.0296
     15 C15         0.4959   -0.9458    1.1153 C.ar      1 <1>        -0.0633
     16 O16         1.3796    0.0848    1.1136 O.3       1 <1>        -0.5675
     17 C17         0.9581   -2.2493    0.9732 C.ar      1 <1>        -0.0359
     18 C18         0.0666   -3.3064    0.9731 C.ar      1 <1>        -0.0245
     19 O19         0.5156   -4.5795    0.8341 O.3       1 <1>        -0.4308
     20 C20        -1.3024   -3.0538    1.1238 C.ar      1 <1>         0.0344
     21 H21        -4.4092   -4.5680    1.2883 H         1 <1>         0.1277
     22 H22        -6.0925   -4.1913    1.4822 H         1 <1>         0.1429
     23 H23        -8.4658   -3.6115    1.7461 H         1 <1>         0.1323
     24 H24        -9.7105   -1.1569    2.9275 H         1 <1>         0.3541
     25 H25        -7.4430    0.5369    1.9485 H         1 <1>         0.1248
     26 H26        -5.0657   -0.0292    1.6916 H         1 <1>         0.1429
     27 H27        -1.2063    0.3286    1.3690 H         1 <1>         0.1024
     28 H28         2.0160   -2.4366    0.8623 H         1 <1>         0.1029
     29 H29         0.7258   -5.0160    1.6710 H         1 <1>         0.3510
@<TRIPOS>BOND
     1    1    2 2
     2    2   20 1
     3    2    3 1
     4    3    4 2
     5    3   21 1
     6    4    5 1
     7    4   12 1
     8    5   11 ar
     9    5    6 ar
    10    6    7 ar
    11    6   22 1
    12    7    8 ar
    13    7   23 1
    14    8    9 1
    15    8   10 ar
    16    9   24 1
    17   10   11 ar
    18   10   25 1
    19   11   26 1
    20   12   13 1
    21   13   20 ar
    22   13   14 ar
    23   14   15 ar
    24   14   27 1
    25   15   16 1
    26   15   17 ar
    27   17   18 ar
    28   17   28 1
    29   18   19 1
    30   18   20 ar
    31   19   29 1
@<TRIPOS>Similarity
1.0970
@<TRIPOS>ShapeSim
0.8033
@<TRIPOS>PharmSim
0.2936
# END
# Name:		C1=CC(=CC=C1C2=CC(=O)C3=C(C=C(C=C3O2)O)O)O
# Created and modified by SHAFTS on Sun Mar 21 16:57:45 2021

# 

@<TRIPOS>MOLECULE
C1=CC(=CC=C1C2=CC(=O)C3=C(C=C(C=C3O2)O)O)O
   29    31     0
SMALL
USER_CHARGE


@<TRIPOS>ATOM
      1 O1         -1.9396   -5.3135    1.0046 O.2       1 <1>        -0.4955
      2 C2         -2.2865   -4.1496    1.1250 C.2       1 <1>         0.0597
      3 C3         -3.6494   -3.8006    1.2772 C.2       1 <1>         0.0129
      4 C4         -3.9959   -2.4919    1.4090 C.2       1 <1>         0.0481
      5 C5         -5.4216   -2.1481    1.5665 C.ar      1 <1>        -0.0232
      6 C6         -6.3882   -3.1576    1.5845 C.ar      1 <1>        -0.0676
      7 C7         -7.7183   -2.8321    1.7323 C.ar      1 <1>        -0.0618
      8 C8         -8.1000   -1.5022    1.8630 C.ar      1 <1>        -0.0400
      9 O9         -9.4121   -1.1858    2.0081 O.3       1 <1>        -0.4398
     10 C10        -7.1422   -0.4954    1.8462 C.ar      1 <1>        -0.0635
     11 C11        -5.8094   -0.8123    1.7042 C.ar      1 <1>        -0.0679
     12 O12        -3.0899   -1.5012    1.4015 O.3       1 <1>        -0.3426
     13 C13        -1.7675   -1.7345    1.2621 C.ar      1 <1>         0.0276
     14 C14        -0.8589   -0.6881    1.2594 C.ar      1 <1>        -0.0296
     15 C15         0.4959   -0.9458    1.1153 C.ar      1 <1>        -0.0633
     16 O16         1.3796    0.0848    1.1136 O.3       1 <1>        -0.5675
     17 C17         0.9581   -2.2493    0.9732 C.ar      1 <1>        -0.0359
     18 C18         0.0666   -3.3064    0.9731 C.ar      1 <1>        -0.0245
     19 O19         0.5156   -4.5795    0.8341 O.3       1 <1>        -0.4308
     20 C20        -1.3024   -3.0538    1.1238 C.ar      1 <1>         0.0344
     21 H21        -4.4092   -4.5680    1.2883 H         1 <1>         0.1277
     22 H22        -6.0925   -4.1913    1.4822 H         1 <1>         0.1429
     23 H23        -8.4658   -3.6115    1.7461 H         1 <1>         0.1323
     24 H24        -9.7105   -1.1569    2.9275 H         1 <1>         0.3541
     25 H25        -7.4430    0.5369    1.9485 H         1 <1>         0.1248
     26 H26        -5.0657   -0.0292    1.6916 H         1 <1>         0.1429
     27 H27        -1.2063    0.3286    1.3690 H         1 <1>         0.1024
     28 H28         2.0160   -2.4366    0.8623 H         1 <1>         0.1029
     29 H29         0.7258   -5.0160    1.6710 H         1 <1>         0.3510
@<TRIPOS>BOND
     1    1    2 2
     2    2   20 1
     3    2    3 1
     4    3    4 2
     5    3   21 1
     6    4    5 1
     7    4   12 1
     8    5   11 ar
     9    5    6 ar
    10    6    7 ar
    11    6   22 1
    12    7    8 ar
    13    7   23 1
    14    8    9 1
    15    8   10 ar
    16    9   24 1
    17   10   11 ar
    18   10   25 1
    19   11   26 1
    20   12   13 1
    21   13   20 ar
    22   13   14 ar
    23   14   15 ar
    24   14   27 1
    25   15   16 1
    26   15   17 ar
    27   17   18 ar
    28   17   28 1
    29   18   19 1
    30   18   20 ar
    31   19   29 1
@<TRIPOS>Similarity
1.0970
@<TRIPOS>ShapeSim
0.8033
@<TRIPOS>PharmSim
0.2936
# END
# Name:		C1=CC(=CC=C1C2=CC(=O)C3=C(C=C(C=C3O2)O)O)O
# Created and modified by SHAFTS on Sun Mar 21 16:57:45 2021

# 

@<TRIPOS>MOLECULE
C1=CC(=CC=C1C2=CC(=O)C3=C(C=C(C=C3O2)O)O)O
   29    31     0
SMALL
USER_CHARGE


@<TRIPOS>ATOM
      1 O1         -1.9396   -5.3135    1.0046 O.2       1 <1>        -0.4955
      2 C2         -2.2865   -4.1496    1.1250 C.2       1 <1>         0.0597
      3 C3         -3.6494   -3.8006    1.2772 C.2       1 <1>         0.0129
      4 C4         -3.9959   -2.4919    1.4090 C.2       1 <1>         0.0481
      5 C5         -5.4216   -2.1481    1.5665 C.ar      1 <1>        -0.0232
      6 C6         -6.3882   -3.1576    1.5845 C.ar      1 <1>        -0.0676
      7 C7         -7.7183   -2.8321    1.7323 C.ar      1 <1>        -0.0618
      8 C8         -8.1000   -1.5022    1.8630 C.ar      1 <1>        -0.0400
      9 O9         -9.4121   -1.1858    2.0081 O.3       1 <1>        -0.4398
     10 C10        -7.1422   -0.4954    1.8462 C.ar      1 <1>        -0.0635
     11 C11        -5.8094   -0.8123    1.7042 C.ar      1 <1>        -0.0679
     12 O12        -3.0899   -1.5012    1.4015 O.3       1 <1>        -0.3426
     13 C13        -1.7675   -1.7345    1.2621 C.ar      1 <1>         0.0276
     14 C14        -0.8589   -0.6881    1.2594 C.ar      1 <1>        -0.0296
     15 C15         0.4959   -0.9458    1.1153 C.ar      1 <1>        -0.0633
     16 O16         1.3796    0.0848    1.1136 O.3       1 <1>        -0.5675
     17 C17         0.9581   -2.2493    0.9732 C.ar      1 <1>        -0.0359
     18 C18         0.0666   -3.3064    0.9731 C.ar      1 <1>        -0.0245
     19 O19         0.5156   -4.5795    0.8341 O.3       1 <1>        -0.4308
     20 C20        -1.3024   -3.0538    1.1238 C.ar      1 <1>         0.0344
     21 H21        -4.4092   -4.5680    1.2883 H         1 <1>         0.1277
     22 H22        -6.0925   -4.1913    1.4822 H         1 <1>         0.1429
     23 H23        -8.4658   -3.6115    1.7461 H         1 <1>         0.1323
     24 H24        -9.7105   -1.1569    2.9275 H         1 <1>         0.3541
     25 H25        -7.4430    0.5369    1.9485 H         1 <1>         0.1248
     26 H26        -5.0657   -0.0292    1.6916 H         1 <1>         0.1429
     27 H27        -1.2063    0.3286    1.3690 H         1 <1>         0.1024
     28 H28         2.0160   -2.4366    0.8623 H         1 <1>         0.1029
     29 H29         0.7258   -5.0160    1.6710 H         1 <1>         0.3510
@<TRIPOS>BOND
     1    1    2 2
     2    2   20 1
     3    2    3 1
     4    3    4 2
     5    3   21 1
     6    4    5 1
     7    4   12 1
     8    5   11 ar
     9    5    6 ar
    10    6    7 ar
    11    6   22 1
    12    7    8 ar
    13    7   23 1
    14    8    9 1
    15    8   10 ar
    16    9   24 1
    17   10   11 ar
    18   10   25 1
    19   11   26 1
    20   12   13 1
    21   13   20 ar
    22   13   14 ar
    23   14   15 ar
    24   14   27 1
    25   15   16 1
    26   15   17 ar
    27   17   18 ar
    28   17   28 1
    29   18   19 1
    30   18   20 ar
    31   19   29 1
@<TRIPOS>Similarity
1.0970
@<TRIPOS>ShapeSim
0.8033
@<TRIPOS>PharmSim
0.2936
# END
# Name:		C1=CC=C(C=C1)C2=CC(=O)C3=C(O2)C=C(C(=C3O)O)O
# Created and modified by SHAFTS on Sun Mar 21 16:57:45 2021

# 

@<TRIPOS>MOLECULE
C1=CC=C(C=C1)C2=CC(=O)C3=C(O2)C=C(C(=C3O)O)O
   29    31     0
SMALL
USER_CHARGE


@<TRIPOS>ATOM
      1 O1         -5.0257   -5.2757    1.2924 O.2       1 <1>        -0.4952
      2 C2         -5.0291   -4.0589    1.3848 C.2       1 <1>         0.0612
      3 C3         -6.2359   -3.3368    1.5508 C.2       1 <1>         0.0131
      4 C4         -6.1979   -1.9820    1.6503 C.2       1 <1>         0.0472
      5 C5         -7.4672   -1.2470    1.8236 C.ar      1 <1>        -0.0277
      6 C6         -8.6768   -1.9420    1.8886 C.ar      1 <1>        -0.0788
      7 C7         -9.8585   -1.2493    2.0510 C.ar      1 <1>        -0.0995
      8 C8         -9.8473    0.1309    2.1490 C.ar      1 <1>        -0.1053
      9 C9         -8.6524    0.8258    2.0855 C.ar      1 <1>        -0.0976
     10 C10        -7.4628    0.1454    1.9290 C.ar      1 <1>        -0.0751
     11 O11        -5.0516   -1.2860    1.5975 O.3       1 <1>        -0.3424
     12 C12        -3.8510   -1.8842    1.4414 C.ar      1 <1>         0.0294
     13 C13        -2.6866   -1.1340    1.3917 C.ar      1 <1>        -0.0227
     14 C14        -1.4617   -1.7625    1.2314 C.ar      1 <1>        -0.0248
     15 O15        -0.3254   -1.0196    1.1841 O.3       1 <1>        -0.5560
     16 C16        -1.3851   -3.1493    1.1190 C.ar      1 <1>         0.0345
     17 O17        -0.1747   -3.7529    0.9621 O.3       1 <1>        -0.4376
     18 C18        -2.5391   -3.9150    1.1672 C.ar      1 <1>         0.0110
     19 O19        -2.4685   -5.2671    1.0583 O.3       1 <1>        -0.4212
     20 C20        -3.7776   -3.2843    1.3340 C.ar      1 <1>         0.0419
     21 H21        -7.1799   -3.8592    1.5978 H         1 <1>         0.1277
     22 H22        -8.6871   -3.0192    1.8115 H         1 <1>         0.1307
     23 H23       -10.7947   -1.7854    2.1015 H         1 <1>         0.1211
     24 H24       -10.7756    0.6683    2.2754 H         1 <1>         0.1143
     25 H25        -8.6509    1.9031    2.1626 H         1 <1>         0.1215
     26 H26        -6.5307    0.6889    1.8799 H         1 <1>         0.1408
     27 H27        -2.7339   -0.0584    1.4774 H         1 <1>         0.1027
     28 H28         0.2553   -3.9939    1.7939 H         1 <1>         0.3330
     29 H29        -2.3675   -5.7250    1.9040 H         1 <1>         0.3539
@<TRIPOS>BOND
     1    1    2 2
     2    2   20 1
     3    2    3 1
     4    3    4 2
     5    3   21 1
     6    4    5 1
     7    4   11 1
     8    5   10 ar
     9    5    6 ar
    10    6    7 ar
    11    6   22 1
    12    7    8 ar
    13    7   23 1
    14    8    9 ar
    15    8   24 1
    16    9   10 ar
    17    9   25 1
    18   10   26 1
    19   11   12 1
    20   12   20 ar
    21   12   13 ar
    22   13   14 ar
    23   13   27 1
    24   14   15 1
    25   14   16 ar
    26   16   17 1
    27   16   18 ar
    28   17   28 1
    29   18   19 1
    30   18   20 ar
    31   19   29 1
@<TRIPOS>Similarity
1.0966
@<TRIPOS>ShapeSim
0.7623
@<TRIPOS>PharmSim
0.3342
# END
# Name:		C1CC(C1)(C2=CC=C(C=C2)C3=C(C=C4C(=N3)C=CN5C4=NNC5=O)C6=CC=CC=C6)N
# Created and modified by SHAFTS on Sun Mar 21 16:57:45 2021

# 

@<TRIPOS>MOLECULE
C1CC(C1)(C2=CC=C(C=C2)C3=C(C=C4C(=N3)C=CN5C4=NNC5=O)C6=CC=CC=C6)N
   53    58     0
SMALL
USER_CHARGE


@<TRIPOS>ATOM
      1 N1          0.5861   -4.9254    0.8015 N.4       1 <1>         0.4443
      2 H2          1.5873   -5.0483    0.8292 H         1 <1>         0.1543
      3 H3          0.2064   -5.4346    0.0175 H         1 <1>         0.1543
      4 H4          0.1806   -5.2741    1.6571 H         1 <1>         0.1543
      5 C5          0.2717   -3.4978    0.6568 C.3       1 <1>        -0.1307
      6 C6         -1.1883   -3.1950    0.8752 C.ar      1 <1>        -0.1295
      7 C7         -1.7317   -2.0252    0.3748 C.ar      1 <1>        -0.0862
      8 C8         -3.0678   -1.7425    0.5715 C.ar      1 <1>        -0.0589
      9 C9         -3.8708   -2.6387    1.2765 C.ar      1 <1>        -0.0171
     10 C10        -5.3061   -2.3413    1.4908 C.ar      1 <1>         0.0148
     11 N11        -5.6906   -1.0870    1.6712 N.ar      1 <1>        -0.3510
     12 C12        -6.9653   -0.7741    1.8662 C.ar      1 <1>         0.0221
     13 C13        -7.9552   -1.7828    1.8863 C.ar      1 <1>         0.0582
     14 C14        -7.5875   -3.1126    1.7001 C.ar      1 <1>        -0.0198
     15 C15        -6.2377   -3.3961    1.4932 C.ar      1 <1>        -0.0131
     16 C16        -5.7881   -4.7933    1.2888 C.ar      1 <1>        -0.0703
     17 C17        -4.9592   -5.1116    0.2138 C.ar      1 <1>        -0.0925
     18 C18        -4.5439   -6.4145    0.0285 C.ar      1 <1>        -0.1032
     19 C19        -4.9488   -7.4039    0.9064 C.ar      1 <1>        -0.1034
     20 C20        -5.7712   -7.0941    1.9748 C.ar      1 <1>        -0.0991
     21 C21        -6.1879   -5.7938    2.1739 C.ar      1 <1>        -0.0889
     22 C22        -9.3568   -1.3907    2.1062 C.2       1 <1>         0.1023
     23 N23       -10.4619   -2.0845    2.1742 N.2       1 <1>        -0.2826
     24 N24       -11.5186   -1.1930    2.4026 N.am      1 <1>        -0.2130
     25 C25       -10.9967    0.0480    2.4667 C.2       1 <1>         0.2015
     26 O26       -11.6188    1.0786    2.6539 O.2       1 <1>        -0.4389
     27 N27        -9.6619   -0.0533    2.2858 N.am      1 <1>        -0.2113
     28 C28        -8.6766    0.9091    2.2605 C.2       1 <1>         0.0125
     29 C29        -7.3869    0.6173    2.0663 C.2       1 <1>        -0.0027
     30 C30        -3.3173   -3.8162    1.7785 C.ar      1 <1>        -0.0679
     31 C31        -1.9811   -4.0906    1.5705 C.ar      1 <1>        -0.0977
     32 C32         1.2184   -2.5758    1.4433 C.3       1 <1>        -0.0706
     33 C33         2.1141   -2.5598    0.1934 C.3       1 <1>        -0.0619
     34 C34         0.8471   -2.8669   -0.6222 C.3       1 <1>        -0.0692
     35 H35        -1.1087   -1.3320   -0.1707 H         1 <1>         0.1358
     36 H36        -3.4908   -0.8289    0.1807 H         1 <1>         0.1559
     37 H37        -8.3259   -3.9005    1.7114 H         1 <1>         0.1799
     38 H38        -4.6429   -4.3401   -0.4727 H         1 <1>         0.1199
     39 H39        -3.9017   -6.6622   -0.8039 H         1 <1>         0.1131
     40 H40        -4.6218   -8.4223    0.7569 H         1 <1>         0.1222
     41 H41        -6.0841   -7.8708    2.6569 H         1 <1>         0.1232
     42 H42        -6.8300   -5.5531    3.0083 H         1 <1>         0.1279
     43 H43       -12.4553   -1.4266    2.4976 H         1 <1>         0.4135
     44 H44        -8.9578    1.9419    2.4049 H         1 <1>         0.2308
     45 H45        -6.6521    1.4088    2.0551 H         1 <1>         0.1672
     46 H46        -3.9341   -4.5138    2.3256 H         1 <1>         0.1444
     47 H47        -1.5513   -5.0023    1.9585 H         1 <1>         0.1125
     48 H48         0.7840   -1.6049    1.6816 H         1 <1>         0.0923
     49 H49         1.6803   -3.0571    2.3053 H         1 <1>         0.0638
     50 H50         2.5458   -1.5824   -0.0219 H         1 <1>         0.0610
     51 H51         2.8511   -3.3627    0.1741 H         1 <1>         0.0539
     52 H52         1.0092   -3.5832   -1.4276 H         1 <1>         0.0713
     53 H53         0.3112   -1.9755   -0.9485 H         1 <1>         0.0926
@<TRIPOS>BOND
     1    1    2 1
     2    1    3 1
     3    1    4 1
     4    1    5 1
     5    5   34 1
     6    5    6 1
     7    5   32 1
     8    6   31 ar
     9    6    7 ar
    10    7    8 ar
    11    7   35 1
    12    8    9 ar
    13    8   36 1
    14    9   10 1
    15    9   30 ar
    16   10   15 ar
    17   10   11 ar
    18   11   12 ar
    19   12   29 1
    20   12   13 ar
    21   13   14 ar
    22   13   22 1
    23   14   15 ar
    24   14   37 1
    25   15   16 1
    26   16   21 ar
    27   16   17 ar
    28   17   18 ar
    29   17   38 1
    30   18   19 ar
    31   18   39 1
    32   19   20 ar
    33   19   40 1
    34   20   21 ar
    35   20   41 1
    36   21   42 1
    37   22   27 1
    38   22   23 2
    39   23   24 1
    40   24   25 am
    41   24   43 1
    42   25   26 2
    43   25   27 am
    44   27   28 1
    45   28   29 2
    46   28   44 1
    47   29   45 1
    48   30   31 ar
    49   30   46 1
    50   31   47 1
    51   32   33 1
    52   32   48 1
    53   32   49 1
    54   33   34 1
    55   33   50 1
    56   33   51 1
    57   34   52 1
    58   34   53 1
@<TRIPOS>Similarity
1.0960
@<TRIPOS>ShapeSim
0.7278
@<TRIPOS>PharmSim
0.3682
# END
# Name:		C1CC(C1)(C2=CC=C(C=C2)C3=C(C=C4C(=N3)C=CN5C4=NNC5=O)C6=CC=CC=C6)N
# Created and modified by SHAFTS on Sun Mar 21 16:57:45 2021

# 

@<TRIPOS>MOLECULE
C1CC(C1)(C2=CC=C(C=C2)C3=C(C=C4C(=N3)C=CN5C4=NNC5=O)C6=CC=CC=C6)N
   53    58     0
SMALL
USER_CHARGE


@<TRIPOS>ATOM
      1 N1          0.5861   -4.9254    0.8015 N.4       1 <1>         0.4443
      2 H2          1.5873   -5.0483    0.8292 H         1 <1>         0.1543
      3 H3          0.2064   -5.4346    0.0175 H         1 <1>         0.1543
      4 H4          0.1806   -5.2741    1.6571 H         1 <1>         0.1543
      5 C5          0.2717   -3.4978    0.6568 C.3       1 <1>        -0.1307
      6 C6         -1.1883   -3.1950    0.8752 C.ar      1 <1>        -0.1295
      7 C7         -1.7317   -2.0252    0.3748 C.ar      1 <1>        -0.0862
      8 C8         -3.0678   -1.7425    0.5715 C.ar      1 <1>        -0.0589
      9 C9         -3.8708   -2.6387    1.2765 C.ar      1 <1>        -0.0171
     10 C10        -5.3061   -2.3413    1.4908 C.ar      1 <1>         0.0148
     11 N11        -5.6906   -1.0870    1.6712 N.ar      1 <1>        -0.3510
     12 C12        -6.9653   -0.7741    1.8662 C.ar      1 <1>         0.0221
     13 C13        -7.9552   -1.7828    1.8863 C.ar      1 <1>         0.0582
     14 C14        -7.5875   -3.1126    1.7001 C.ar      1 <1>        -0.0198
     15 C15        -6.2377   -3.3961    1.4932 C.ar      1 <1>        -0.0131
     16 C16        -5.7881   -4.7933    1.2888 C.ar      1 <1>        -0.0703
     17 C17        -4.9592   -5.1116    0.2138 C.ar      1 <1>        -0.0925
     18 C18        -4.5439   -6.4145    0.0285 C.ar      1 <1>        -0.1032
     19 C19        -4.9488   -7.4039    0.9064 C.ar      1 <1>        -0.1034
     20 C20        -5.7712   -7.0941    1.9748 C.ar      1 <1>        -0.0991
     21 C21        -6.1879   -5.7938    2.1739 C.ar      1 <1>        -0.0889
     22 C22        -9.3568   -1.3907    2.1062 C.2       1 <1>         0.1023
     23 N23       -10.4619   -2.0845    2.1742 N.2       1 <1>        -0.2826
     24 N24       -11.5186   -1.1930    2.4026 N.am      1 <1>        -0.2130
     25 C25       -10.9967    0.0480    2.4667 C.2       1 <1>         0.2015
     26 O26       -11.6188    1.0786    2.6539 O.2       1 <1>        -0.4389
     27 N27        -9.6619   -0.0533    2.2858 N.am      1 <1>        -0.2113
     28 C28        -8.6766    0.9091    2.2605 C.2       1 <1>         0.0125
     29 C29        -7.3869    0.6173    2.0663 C.2       1 <1>        -0.0027
     30 C30        -3.3173   -3.8162    1.7785 C.ar      1 <1>        -0.0679
     31 C31        -1.9811   -4.0906    1.5705 C.ar      1 <1>        -0.0977
     32 C32         1.2184   -2.5758    1.4433 C.3       1 <1>        -0.0706
     33 C33         2.1141   -2.5598    0.1934 C.3       1 <1>        -0.0619
     34 C34         0.8471   -2.8669   -0.6222 C.3       1 <1>        -0.0692
     35 H35        -1.1087   -1.3320   -0.1707 H         1 <1>         0.1358
     36 H36        -3.4908   -0.8289    0.1807 H         1 <1>         0.1559
     37 H37        -8.3259   -3.9005    1.7114 H         1 <1>         0.1799
     38 H38        -4.6429   -4.3401   -0.4727 H         1 <1>         0.1199
     39 H39        -3.9017   -6.6622   -0.8039 H         1 <1>         0.1131
     40 H40        -4.6218   -8.4223    0.7569 H         1 <1>         0.1222
     41 H41        -6.0841   -7.8708    2.6569 H         1 <1>         0.1232
     42 H42        -6.8300   -5.5531    3.0083 H         1 <1>         0.1279
     43 H43       -12.4553   -1.4266    2.4976 H         1 <1>         0.4135
     44 H44        -8.9578    1.9419    2.4049 H         1 <1>         0.2308
     45 H45        -6.6521    1.4088    2.0551 H         1 <1>         0.1672
     46 H46        -3.9341   -4.5138    2.3256 H         1 <1>         0.1444
     47 H47        -1.5513   -5.0023    1.9585 H         1 <1>         0.1125
     48 H48         0.7840   -1.6049    1.6816 H         1 <1>         0.0923
     49 H49         1.6803   -3.0571    2.3053 H         1 <1>         0.0638
     50 H50         2.5458   -1.5824   -0.0219 H         1 <1>         0.0610
     51 H51         2.8511   -3.3627    0.1741 H         1 <1>         0.0539
     52 H52         1.0092   -3.5832   -1.4276 H         1 <1>         0.0713
     53 H53         0.3112   -1.9755   -0.9485 H         1 <1>         0.0926
@<TRIPOS>BOND
     1    1    2 1
     2    1    3 1
     3    1    4 1
     4    1    5 1
     5    5   34 1
     6    5    6 1
     7    5   32 1
     8    6   31 ar
     9    6    7 ar
    10    7    8 ar
    11    7   35 1
    12    8    9 ar
    13    8   36 1
    14    9   10 1
    15    9   30 ar
    16   10   15 ar
    17   10   11 ar
    18   11   12 ar
    19   12   29 1
    20   12   13 ar
    21   13   14 ar
    22   13   22 1
    23   14   15 ar
    24   14   37 1
    25   15   16 1
    26   16   21 ar
    27   16   17 ar
    28   17   18 ar
    29   17   38 1
    30   18   19 ar
    31   18   39 1
    32   19   20 ar
    33   19   40 1
    34   20   21 ar
    35   20   41 1
    36   21   42 1
    37   22   27 1
    38   22   23 2
    39   23   24 1
    40   24   25 am
    41   24   43 1
    42   25   26 2
    43   25   27 am
    44   27   28 1
    45   28   29 2
    46   28   44 1
    47   29   45 1
    48   30   31 ar
    49   30   46 1
    50   31   47 1
    51   32   33 1
    52   32   48 1
    53   32   49 1
    54   33   34 1
    55   33   50 1
    56   33   51 1
    57   34   52 1
    58   34   53 1
@<TRIPOS>Similarity
1.0960
@<TRIPOS>ShapeSim
0.7278
@<TRIPOS>PharmSim
0.3682
# END
# Name:		C1CC(C1)(C2=CC=C(C=C2)C3=C(C=C4C(=N3)C=CN5C4=NNC5=O)C6=CC=CC=C6)N
# Created and modified by SHAFTS on Sun Mar 21 16:57:45 2021

# 

@<TRIPOS>MOLECULE
C1CC(C1)(C2=CC=C(C=C2)C3=C(C=C4C(=N3)C=CN5C4=NNC5=O)C6=CC=CC=C6)N
   53    58     0
SMALL
USER_CHARGE


@<TRIPOS>ATOM
      1 N1          0.5861   -4.9254    0.8015 N.4       1 <1>         0.4443
      2 H2          1.5873   -5.0483    0.8292 H         1 <1>         0.1543
      3 H3          0.2064   -5.4346    0.0175 H         1 <1>         0.1543
      4 H4          0.1806   -5.2741    1.6571 H         1 <1>         0.1543
      5 C5          0.2717   -3.4978    0.6568 C.3       1 <1>        -0.1307
      6 C6         -1.1883   -3.1950    0.8752 C.ar      1 <1>        -0.1295
      7 C7         -1.7317   -2.0252    0.3748 C.ar      1 <1>        -0.0862
      8 C8         -3.0678   -1.7425    0.5715 C.ar      1 <1>        -0.0589
      9 C9         -3.8708   -2.6387    1.2765 C.ar      1 <1>        -0.0171
     10 C10        -5.3061   -2.3413    1.4908 C.ar      1 <1>         0.0148
     11 N11        -5.6906   -1.0870    1.6712 N.ar      1 <1>        -0.3510
     12 C12        -6.9653   -0.7741    1.8662 C.ar      1 <1>         0.0221
     13 C13        -7.9552   -1.7828    1.8863 C.ar      1 <1>         0.0582
     14 C14        -7.5875   -3.1126    1.7001 C.ar      1 <1>        -0.0198
     15 C15        -6.2377   -3.3961    1.4932 C.ar      1 <1>        -0.0131
     16 C16        -5.7881   -4.7933    1.2888 C.ar      1 <1>        -0.0703
     17 C17        -4.9592   -5.1116    0.2138 C.ar      1 <1>        -0.0925
     18 C18        -4.5439   -6.4145    0.0285 C.ar      1 <1>        -0.1032
     19 C19        -4.9488   -7.4039    0.9064 C.ar      1 <1>        -0.1034
     20 C20        -5.7712   -7.0941    1.9748 C.ar      1 <1>        -0.0991
     21 C21        -6.1879   -5.7938    2.1739 C.ar      1 <1>        -0.0889
     22 C22        -9.3568   -1.3907    2.1062 C.2       1 <1>         0.1023
     23 N23       -10.4619   -2.0845    2.1742 N.2       1 <1>        -0.2826
     24 N24       -11.5186   -1.1930    2.4026 N.am      1 <1>        -0.2130
     25 C25       -10.9967    0.0480    2.4667 C.2       1 <1>         0.2015
     26 O26       -11.6188    1.0786    2.6539 O.2       1 <1>        -0.4389
     27 N27        -9.6619   -0.0533    2.2858 N.am      1 <1>        -0.2113
     28 C28        -8.6766    0.9091    2.2605 C.2       1 <1>         0.0125
     29 C29        -7.3869    0.6173    2.0663 C.2       1 <1>        -0.0027
     30 C30        -3.3173   -3.8162    1.7785 C.ar      1 <1>        -0.0679
     31 C31        -1.9811   -4.0906    1.5705 C.ar      1 <1>        -0.0977
     32 C32         1.2184   -2.5758    1.4433 C.3       1 <1>        -0.0706
     33 C33         2.1141   -2.5598    0.1934 C.3       1 <1>        -0.0619
     34 C34         0.8471   -2.8669   -0.6222 C.3       1 <1>        -0.0692
     35 H35        -1.1087   -1.3320   -0.1707 H         1 <1>         0.1358
     36 H36        -3.4908   -0.8289    0.1807 H         1 <1>         0.1559
     37 H37        -8.3259   -3.9005    1.7114 H         1 <1>         0.1799
     38 H38        -4.6429   -4.3401   -0.4727 H         1 <1>         0.1199
     39 H39        -3.9017   -6.6622   -0.8039 H         1 <1>         0.1131
     40 H40        -4.6218   -8.4223    0.7569 H         1 <1>         0.1222
     41 H41        -6.0841   -7.8708    2.6569 H         1 <1>         0.1232
     42 H42        -6.8300   -5.5531    3.0083 H         1 <1>         0.1279
     43 H43       -12.4553   -1.4266    2.4976 H         1 <1>         0.4135
     44 H44        -8.9578    1.9419    2.4049 H         1 <1>         0.2308
     45 H45        -6.6521    1.4088    2.0551 H         1 <1>         0.1672
     46 H46        -3.9341   -4.5138    2.3256 H         1 <1>         0.1444
     47 H47        -1.5513   -5.0023    1.9585 H         1 <1>         0.1125
     48 H48         0.7840   -1.6049    1.6816 H         1 <1>         0.0923
     49 H49         1.6803   -3.0571    2.3053 H         1 <1>         0.0638
     50 H50         2.5458   -1.5824   -0.0219 H         1 <1>         0.0610
     51 H51         2.8511   -3.3627    0.1741 H         1 <1>         0.0539
     52 H52         1.0092   -3.5832   -1.4276 H         1 <1>         0.0713
     53 H53         0.3112   -1.9755   -0.9485 H         1 <1>         0.0926
@<TRIPOS>BOND
     1    1    2 1
     2    1    3 1
     3    1    4 1
     4    1    5 1
     5    5   34 1
     6    5    6 1
     7    5   32 1
     8    6   31 ar
     9    6    7 ar
    10    7    8 ar
    11    7   35 1
    12    8    9 ar
    13    8   36 1
    14    9   10 1
    15    9   30 ar
    16   10   15 ar
    17   10   11 ar
    18   11   12 ar
    19   12   29 1
    20   12   13 ar
    21   13   14 ar
    22   13   22 1
    23   14   15 ar
    24   14   37 1
    25   15   16 1
    26   16   21 ar
    27   16   17 ar
    28   17   18 ar
    29   17   38 1
    30   18   19 ar
    31   18   39 1
    32   19   20 ar
    33   19   40 1
    34   20   21 ar
    35   20   41 1
    36   21   42 1
    37   22   27 1
    38   22   23 2
    39   23   24 1
    40   24   25 am
    41   24   43 1
    42   25   26 2
    43   25   27 am
    44   27   28 1
    45   28   29 2
    46   28   44 1
    47   29   45 1
    48   30   31 ar
    49   30   46 1
    50   31   47 1
    51   32   33 1
    52   32   48 1
    53   32   49 1
    54   33   34 1
    55   33   50 1
    56   33   51 1
    57   34   52 1
    58   34   53 1
@<TRIPOS>Similarity
1.0960
@<TRIPOS>ShapeSim
0.7278
@<TRIPOS>PharmSim
0.3682
# END
# Name:		O=C1C(C(O)=O)=CNC2=C(Cl)C=C(Cl)C(Cl)=C21
# Created and modified by SHAFTS on Sun Mar 21 16:57:45 2021

# 

@<TRIPOS>MOLECULE
O=C1C(C(O)=O)=CNC2=C(Cl)C=C(Cl)C(Cl)=C21
   20    21     0
SMALL
USER_CHARGE


@<TRIPOS>ATOM
      1 O1         -4.7340   -5.4254    1.2625 O.co2     1 <1>        -0.5000
      2 C2         -5.9033   -5.0882    1.3922 C.2       1 <1>         0.5300
      3 O3         -6.7860   -5.9357    1.4112 O.co2     1 <1>        -0.5000
      4 C4         -6.2468   -3.6665    1.5309 C.ar      1 <1>        -0.2000
      5 C5         -5.2386   -2.6864    1.5100 C.ar      1 <1>         0.2000
      6 N6         -5.5169   -1.4146    1.6309 N.ar      1 <1>        -0.4900
      7 C7         -6.7741   -0.9742    1.7811 C.ar      1 <1>         0.1500
      8 C8         -7.0434    0.3989    1.9083 C.ar      1 <1>         0.0000
      9 Cl9        -5.7422    1.5477    1.8718 Cl        1 <1>        -0.0300
     10 C10        -8.3289    0.8272    2.0599 C.ar      1 <1>        -0.0900
     11 C11        -9.3877   -0.0765    2.0915 C.ar      1 <1>        -0.0400
     12 Cl12      -11.0103    0.5090    2.2864 Cl        1 <1>        -0.0400
     13 C13        -9.1641   -1.4179    1.9706 C.ar      1 <1>         0.0100
     14 Cl14      -10.4950   -2.5318    2.0108 Cl        1 <1>        -0.0200
     15 C15        -7.8519   -1.8913    1.8135 C.ar      1 <1>        -0.1200
     16 C16        -7.5838   -3.2718    1.6798 C.ar      1 <1>         0.2000
     17 O17        -8.5828   -4.1824    1.6995 O.3       1 <1>        -0.4500
     18 H18        -4.2094   -2.9916    1.3914 H         1 <1>         0.1800
     19 H19        -8.5290    1.8841    2.1575 H         1 <1>         0.1500
     20 H20        -8.9538   -4.3781    0.8282 H         1 <1>         0.3900
@<TRIPOS>BOND
     1    1    2 ar
     2    2    3 ar
     3    2    4 1
     4    4   16 ar
     5    4    5 ar
     6    5    6 ar
     7    5   18 1
     8    6    7 ar
     9    7   15 ar
    10    7    8 ar
    11    8    9 1
    12    8   10 ar
    13   10   11 ar
    14   10   19 1
    15   11   12 1
    16   11   13 ar
    17   13   14 1
    18   13   15 ar
    19   15   16 ar
    20   16   17 1
    21   17   20 1
@<TRIPOS>Similarity
1.0955
@<TRIPOS>ShapeSim
0.6194
@<TRIPOS>PharmSim
0.4761
# END
# Name:		O=C1C(C(O)=O)=CNC2=C(Cl)C=C(Cl)C(Cl)=C21
# Created and modified by SHAFTS on Sun Mar 21 16:57:45 2021

# 

@<TRIPOS>MOLECULE
O=C1C(C(O)=O)=CNC2=C(Cl)C=C(Cl)C(Cl)=C21
   20    21     0
SMALL
USER_CHARGE


@<TRIPOS>ATOM
      1 O1         -4.7340   -5.4254    1.2625 O.co2     1 <1>        -0.5000
      2 C2         -5.9033   -5.0882    1.3922 C.2       1 <1>         0.5300
      3 O3         -6.7860   -5.9357    1.4112 O.co2     1 <1>        -0.5000
      4 C4         -6.2468   -3.6665    1.5309 C.ar      1 <1>        -0.2000
      5 C5         -5.2386   -2.6864    1.5100 C.ar      1 <1>         0.2000
      6 N6         -5.5169   -1.4146    1.6309 N.ar      1 <1>        -0.4900
      7 C7         -6.7741   -0.9742    1.7811 C.ar      1 <1>         0.1500
      8 C8         -7.0434    0.3989    1.9083 C.ar      1 <1>         0.0000
      9 Cl9        -5.7422    1.5477    1.8718 Cl        1 <1>        -0.0300
     10 C10        -8.3289    0.8272    2.0599 C.ar      1 <1>        -0.0900
     11 C11        -9.3877   -0.0765    2.0915 C.ar      1 <1>        -0.0400
     12 Cl12      -11.0103    0.5090    2.2864 Cl        1 <1>        -0.0400
     13 C13        -9.1641   -1.4179    1.9706 C.ar      1 <1>         0.0100
     14 Cl14      -10.4950   -2.5318    2.0108 Cl        1 <1>        -0.0200
     15 C15        -7.8519   -1.8913    1.8135 C.ar      1 <1>        -0.1200
     16 C16        -7.5838   -3.2718    1.6798 C.ar      1 <1>         0.2000
     17 O17        -8.5828   -4.1824    1.6995 O.3       1 <1>        -0.4500
     18 H18        -4.2094   -2.9916    1.3914 H         1 <1>         0.1800
     19 H19        -8.5290    1.8841    2.1575 H         1 <1>         0.1500
     20 H20        -8.9538   -4.3781    0.8282 H         1 <1>         0.3900
@<TRIPOS>BOND
     1    1    2 ar
     2    2    3 ar
     3    2    4 1
     4    4   16 ar
     5    4    5 ar
     6    5    6 ar
     7    5   18 1
     8    6    7 ar
     9    7   15 ar
    10    7    8 ar
    11    8    9 1
    12    8   10 ar
    13   10   11 ar
    14   10   19 1
    15   11   12 1
    16   11   13 ar
    17   13   14 1
    18   13   15 ar
    19   15   16 ar
    20   16   17 1
    21   17   20 1
@<TRIPOS>Similarity
1.0955
@<TRIPOS>ShapeSim
0.6194
@<TRIPOS>PharmSim
0.4761
# END
# Name:		O=C1C(C(O)=O)=CNC2=C(Cl)C=C(Cl)C(Cl)=C21
# Created and modified by SHAFTS on Sun Mar 21 16:57:45 2021

# 

@<TRIPOS>MOLECULE
O=C1C(C(O)=O)=CNC2=C(Cl)C=C(Cl)C(Cl)=C21
   20    21     0
SMALL
USER_CHARGE


@<TRIPOS>ATOM
      1 O1         -4.7340   -5.4254    1.2625 O.co2     1 <1>        -0.5000
      2 C2         -5.9033   -5.0882    1.3922 C.2       1 <1>         0.5300
      3 O3         -6.7860   -5.9357    1.4112 O.co2     1 <1>        -0.5000
      4 C4         -6.2468   -3.6665    1.5309 C.ar      1 <1>        -0.2000
      5 C5         -5.2386   -2.6864    1.5100 C.ar      1 <1>         0.2000
      6 N6         -5.5169   -1.4146    1.6309 N.ar      1 <1>        -0.4900
      7 C7         -6.7741   -0.9742    1.7811 C.ar      1 <1>         0.1500
      8 C8         -7.0434    0.3989    1.9083 C.ar      1 <1>         0.0000
      9 Cl9        -5.7422    1.5477    1.8718 Cl        1 <1>        -0.0300
     10 C10        -8.3289    0.8272    2.0599 C.ar      1 <1>        -0.0900
     11 C11        -9.3877   -0.0765    2.0915 C.ar      1 <1>        -0.0400
     12 Cl12      -11.0103    0.5090    2.2864 Cl        1 <1>        -0.0400
     13 C13        -9.1641   -1.4179    1.9706 C.ar      1 <1>         0.0100
     14 Cl14      -10.4950   -2.5318    2.0108 Cl        1 <1>        -0.0200
     15 C15        -7.8519   -1.8913    1.8135 C.ar      1 <1>        -0.1200
     16 C16        -7.5838   -3.2718    1.6798 C.ar      1 <1>         0.2000
     17 O17        -8.5828   -4.1824    1.6995 O.3       1 <1>        -0.4500
     18 H18        -4.2094   -2.9916    1.3914 H         1 <1>         0.1800
     19 H19        -8.5290    1.8841    2.1575 H         1 <1>         0.1500
     20 H20        -8.9538   -4.3781    0.8282 H         1 <1>         0.3900
@<TRIPOS>BOND
     1    1    2 ar
     2    2    3 ar
     3    2    4 1
     4    4   16 ar
     5    4    5 ar
     6    5    6 ar
     7    5   18 1
     8    6    7 ar
     9    7   15 ar
    10    7    8 ar
    11    8    9 1
    12    8   10 ar
    13   10   11 ar
    14   10   19 1
    15   11   12 1
    16   11   13 ar
    17   13   14 1
    18   13   15 ar
    19   15   16 ar
    20   16   17 1
    21   17   20 1
@<TRIPOS>Similarity
1.0955
@<TRIPOS>ShapeSim
0.6194
@<TRIPOS>PharmSim
0.4761
# END
# Name:		C1=CC(=CC=C1C=CC(=O)CC(=O)C=CC2=CC=C(C=C2)O)O
# Created and modified by SHAFTS on Sun Mar 21 16:57:45 2021

# 

@<TRIPOS>MOLECULE
C1=CC(=CC=C1C=CC(=O)CC(=O)C=CC2=CC=C(C=C2)O)O
   39    40     0
SMALL
USER_CHARGE


@<TRIPOS>ATOM
      1 O1         -2.4891   -5.2111    1.0632 O.2       1 <1>        -0.4603
      2 C2         -1.9532   -4.1215    1.0977 C.2       1 <1>         0.0739
      3 C3         -0.5546   -4.0206    0.9709 C.2       1 <1>        -0.0282
      4 C4          0.1938   -5.1394    0.8103 C.2       1 <1>        -0.0742
      5 C5          1.6519   -5.0342    0.6781 C.ar      1 <1>        -0.0798
      6 C6          2.2732   -3.7794    0.7233 C.ar      1 <1>        -0.0871
      7 C7          3.6405   -3.6866    0.5994 C.ar      1 <1>        -0.0676
      8 C8          4.4054   -4.8356    0.4294 C.ar      1 <1>        -0.0408
      9 O9          5.7535   -4.7384    0.3081 O.3       1 <1>        -0.4385
     10 C10         3.7939   -6.0838    0.3837 C.ar      1 <1>        -0.0660
     11 C11         2.4279   -6.1887    0.5120 C.ar      1 <1>        -0.0850
     12 C12        -2.7858   -2.8773    1.2700 C.3       1 <1>         0.1094
     13 C13        -4.2405   -3.2569    1.3747 C.2       1 <1>         0.0739
     14 O14        -4.5693   -4.4247    1.3151 O.2       1 <1>        -0.4603
     15 C15        -5.2184   -2.2579    1.5415 C.2       1 <1>        -0.0282
     16 C16        -6.5269   -2.5993    1.6355 C.2       1 <1>        -0.0742
     17 C17        -7.5465   -1.5577    1.8095 C.ar      1 <1>        -0.0798
     18 C18        -7.1706   -0.2097    1.8727 C.ar      1 <1>        -0.0871
     19 C19        -8.1308    0.7626    2.0354 C.ar      1 <1>        -0.0676
     20 C20        -9.4718    0.4090    2.1370 C.ar      1 <1>        -0.0408
     21 O21       -10.4146    1.3720    2.2968 O.3       1 <1>        -0.4385
     22 C22        -9.8506   -0.9276    2.0748 C.ar      1 <1>        -0.0660
     23 C23        -8.8993   -1.9078    1.9071 C.ar      1 <1>        -0.0850
     24 H24        -0.0781   -3.0520    1.0016 H         1 <1>         0.1148
     25 H25        -0.2826   -6.1080    0.7796 H         1 <1>         0.1548
     26 H26         1.6801   -2.8865    0.8549 H         1 <1>         0.1302
     27 H27         4.1205   -2.7197    0.6337 H         1 <1>         0.1241
     28 H28         6.2284   -4.7839    1.1492 H         1 <1>         0.3624
     29 H29         4.3926   -6.9729    0.2515 H         1 <1>         0.1246
     30 H30         1.9540   -7.1585    0.4764 H         1 <1>         0.1328
     31 H31        -2.4796   -2.3581    2.1781 H         1 <1>         0.1252
     32 H32        -2.6421   -2.2221    0.4109 H         1 <1>         0.1252
     33 H33        -4.9261   -1.2196    1.5944 H         1 <1>         0.1148
     34 H34        -6.8191   -3.6377    1.5826 H         1 <1>         0.1548
     35 H35        -6.1293    0.0659    1.7944 H         1 <1>         0.1302
     36 H36        -7.8421    1.8022    2.0846 H         1 <1>         0.1241
     37 H37       -10.7711    1.7152    1.4660 H         1 <1>         0.3624
     38 H38       -10.8935   -1.1966    2.1543 H         1 <1>         0.1246
     39 H39        -9.1946   -2.9455    1.8589 H         1 <1>         0.1328
@<TRIPOS>BOND
     1    1    2 2
     2    2    3 1
     3    2   12 1
     4    3    4 2
     5    3   24 1
     6    4    5 1
     7    4   25 1
     8    5   11 ar
     9    5    6 ar
    10    6    7 ar
    11    6   26 1
    12    7    8 ar
    13    7   27 1
    14    8    9 1
    15    8   10 ar
    16    9   28 1
    17   10   11 ar
    18   10   29 1
    19   11   30 1
    20   12   13 1
    21   12   31 1
    22   12   32 1
    23   13   14 2
    24   13   15 1
    25   15   16 2
    26   15   33 1
    27   16   17 1
    28   16   34 1
    29   17   23 ar
    30   17   18 ar
    31   18   19 ar
    32   18   35 1
    33   19   20 ar
    34   19   36 1
    35   20   21 1
    36   20   22 ar
    37   21   37 1
    38   22   23 ar
    39   22   38 1
    40   23   39 1
@<TRIPOS>Similarity
1.0947
@<TRIPOS>ShapeSim
0.7674
@<TRIPOS>PharmSim
0.3273
# END
# Name:		COC1=C(OC)C=C2C(N=C(OC=C3)C3=C2OC4=CC=CN=C4)=C1
# Created and modified by SHAFTS on Sun Mar 21 16:57:45 2021

# 

@<TRIPOS>MOLECULE
COC1=C(OC)C=C2C(N=C(OC=C3)C3=C2OC4=CC=CN=C4)=C1
   38    41     0
SMALL
USER_CHARGE


@<TRIPOS>ATOM
      1 C1         -1.3635   -3.8796    1.0645 C.3       1 <1>         0.0302
      2 O2         -2.4244   -4.8367    1.0859 O.3       1 <1>        -0.3962
      3 C3         -3.6859   -4.3560    1.2399 C.ar      1 <1>         0.0615
      4 C4         -4.7668   -5.2495    1.2741 C.ar      1 <1>         0.0510
      5 O5         -4.5405   -6.5851    1.1534 O.3       1 <1>        -0.4009
      6 C6         -5.6826   -7.4430    1.1958 C.3       1 <1>         0.0289
      7 C7         -6.0425   -4.7915    1.4276 C.ar      1 <1>        -0.0296
      8 C8         -6.2757   -3.4118    1.5526 C.ar      1 <1>         0.0074
      9 C9         -5.1857   -2.5055    1.5186 C.ar      1 <1>         0.0053
     10 C10        -3.8828   -3.0116    1.3647 C.ar      1 <1>         0.0044
     11 N11        -5.3926   -1.1896    1.6362 N.ar      1 <1>        -0.3306
     12 C12        -6.6028   -0.6844    1.7865 C.ar      1 <1>         0.1016
     13 O13        -7.0523    0.5813    1.9229 O.3       1 <1>        -0.3175
     14 C14        -8.3918    0.6073    2.0495 C.2       1 <1>         0.0340
     15 C15        -8.8872   -0.6352    2.0029 C.2       1 <1>        -0.0538
     16 C16        -7.7340   -1.5277    1.8289 C.ar      1 <1>         0.0228
     17 C17        -7.5829   -2.9069    1.7121 C.ar      1 <1>         0.0521
     18 O18        -8.6549   -3.7354    1.7494 O.3       1 <1>        -0.3472
     19 C19        -9.2697   -4.0364    0.5755 C.ar      1 <1>         0.0466
     20 C20       -10.3780   -4.8771    0.5547 C.ar      1 <1>        -0.0420
     21 C21       -10.9710   -5.1548   -0.6665 C.ar      1 <1>        -0.0606
     22 C22       -10.4463   -4.5924   -1.8149 C.ar      1 <1>        -0.0417
     23 N23        -9.3940   -3.7992   -1.7607 N.ar      1 <1>        -0.3980
     24 C24        -8.8043   -3.5053   -0.6191 C.ar      1 <1>        -0.0037
     25 H25        -1.5159   -3.1867    0.2370 H         1 <1>         0.0917
     26 H26        -1.3537   -3.3269    2.0040 H         1 <1>         0.0917
     27 H27        -0.4116   -4.3950    0.9362 H         1 <1>         0.1278
     28 H28        -5.3627   -8.4794    1.0888 H         1 <1>         0.1277
     29 H29        -6.1958   -7.3179    2.1493 H         1 <1>         0.0915
     30 H30        -6.3605   -7.1860    0.3819 H         1 <1>         0.0915
     31 H31        -6.8691   -5.4862    1.4525 H         1 <1>         0.1372
     32 H32        -3.0401   -2.3366    1.3369 H         1 <1>         0.1559
     33 H33        -8.9829    1.5030    2.1716 H         1 <1>         0.2482
     34 H34        -9.9253   -0.9233    2.0780 H         1 <1>         0.1378
     35 H35       -10.7666   -5.3030    1.4680 H         1 <1>         0.1500
     36 H36       -11.8328   -5.8036   -0.7205 H         1 <1>         0.1421
     37 H37       -10.9040   -4.8056   -2.7696 H         1 <1>         0.1941
     38 H38        -7.9445   -2.8518   -0.6145 H         1 <1>         0.1888
@<TRIPOS>BOND
     1    1    2 1
     2    1   25 1
     3    1   26 1
     4    1   27 1
     5    2    3 1
     6    3   10 ar
     7    3    4 ar
     8    4    5 1
     9    4    7 ar
    10    5    6 1
    11    6   28 1
    12    6   29 1
    13    6   30 1
    14    7    8 ar
    15    7   31 1
    16    8   17 ar
    17    8    9 ar
    18    9   10 ar
    19    9   11 ar
    20   10   32 1
    21   11   12 ar
    22   12   16 ar
    23   12   13 1
    24   13   14 1
    25   14   15 2
    26   14   33 1
    27   15   16 1
    28   15   34 1
    29   16   17 ar
    30   17   18 1
    31   18   19 1
    32   19   24 ar
    33   19   20 ar
    34   20   21 ar
    35   20   35 1
    36   21   22 ar
    37   21   36 1
    38   22   23 ar
    39   22   37 1
    40   23   24 ar
    41   24   38 1
@<TRIPOS>Similarity
1.0930
@<TRIPOS>ShapeSim
0.6245
@<TRIPOS>PharmSim
0.4685
# END
# Name:		COC1=C(C=C2C(=C1)C(=C3C=COC3=N2)OC4=CN=CC=C4)OC
# Created and modified by SHAFTS on Sun Mar 21 16:57:45 2021

# 

@<TRIPOS>MOLECULE
COC1=C(C=C2C(=C1)C(=C3C=COC3=N2)OC4=CN=CC=C4)OC
   38    41     0
SMALL
USER_CHARGE


@<TRIPOS>ATOM
      1 C1         -1.3635   -3.8796    1.0645 C.3       1 <1>         0.0302
      2 O2         -2.4244   -4.8367    1.0859 O.3       1 <1>        -0.3962
      3 C3         -3.6859   -4.3560    1.2399 C.ar      1 <1>         0.0615
      4 C4         -4.7668   -5.2495    1.2741 C.ar      1 <1>         0.0510
      5 O5         -4.5405   -6.5851    1.1534 O.3       1 <1>        -0.4009
      6 C6         -5.6826   -7.4430    1.1958 C.3       1 <1>         0.0289
      7 C7         -6.0425   -4.7915    1.4276 C.ar      1 <1>        -0.0296
      8 C8         -6.2757   -3.4118    1.5526 C.ar      1 <1>         0.0074
      9 C9         -5.1857   -2.5055    1.5186 C.ar      1 <1>         0.0053
     10 C10        -3.8828   -3.0116    1.3647 C.ar      1 <1>         0.0044
     11 N11        -5.3926   -1.1896    1.6362 N.ar      1 <1>        -0.3306
     12 C12        -6.6028   -0.6844    1.7865 C.ar      1 <1>         0.1016
     13 O13        -7.0523    0.5813    1.9229 O.3       1 <1>        -0.3175
     14 C14        -8.3918    0.6073    2.0495 C.2       1 <1>         0.0340
     15 C15        -8.8872   -0.6352    2.0029 C.2       1 <1>        -0.0538
     16 C16        -7.7340   -1.5277    1.8289 C.ar      1 <1>         0.0228
     17 C17        -7.5829   -2.9069    1.7121 C.ar      1 <1>         0.0521
     18 O18        -8.6549   -3.7354    1.7494 O.3       1 <1>        -0.3472
     19 C19        -9.2697   -4.0364    0.5755 C.ar      1 <1>         0.0466
     20 C20       -10.3780   -4.8771    0.5547 C.ar      1 <1>        -0.0420
     21 C21       -10.9710   -5.1548   -0.6665 C.ar      1 <1>        -0.0606
     22 C22       -10.4463   -4.5924   -1.8149 C.ar      1 <1>        -0.0417
     23 N23        -9.3940   -3.7992   -1.7607 N.ar      1 <1>        -0.3980
     24 C24        -8.8043   -3.5053   -0.6191 C.ar      1 <1>        -0.0037
     25 H25        -1.5159   -3.1867    0.2370 H         1 <1>         0.0917
     26 H26        -1.3537   -3.3269    2.0040 H         1 <1>         0.0917
     27 H27        -0.4116   -4.3950    0.9362 H         1 <1>         0.1278
     28 H28        -5.3627   -8.4794    1.0888 H         1 <1>         0.1277
     29 H29        -6.1958   -7.3179    2.1493 H         1 <1>         0.0915
     30 H30        -6.3605   -7.1860    0.3819 H         1 <1>         0.0915
     31 H31        -6.8691   -5.4862    1.4525 H         1 <1>         0.1372
     32 H32        -3.0401   -2.3366    1.3369 H         1 <1>         0.1559
     33 H33        -8.9829    1.5030    2.1716 H         1 <1>         0.2482
     34 H34        -9.9253   -0.9233    2.0780 H         1 <1>         0.1378
     35 H35       -10.7666   -5.3030    1.4680 H         1 <1>         0.1500
     36 H36       -11.8328   -5.8036   -0.7205 H         1 <1>         0.1421
     37 H37       -10.9040   -4.8056   -2.7696 H         1 <1>         0.1941
     38 H38        -7.9445   -2.8518   -0.6145 H         1 <1>         0.1888
@<TRIPOS>BOND
     1    1    2 1
     2    1   25 1
     3    1   26 1
     4    1   27 1
     5    2    3 1
     6    3   10 ar
     7    3    4 ar
     8    4    5 1
     9    4    7 ar
    10    5    6 1
    11    6   28 1
    12    6   29 1
    13    6   30 1
    14    7    8 ar
    15    7   31 1
    16    8   17 ar
    17    8    9 ar
    18    9   10 ar
    19    9   11 ar
    20   10   32 1
    21   11   12 ar
    22   12   16 ar
    23   12   13 1
    24   13   14 1
    25   14   15 2
    26   14   33 1
    27   15   16 1
    28   15   34 1
    29   16   17 ar
    30   17   18 1
    31   18   19 1
    32   19   24 ar
    33   19   20 ar
    34   20   21 ar
    35   20   35 1
    36   21   22 ar
    37   21   36 1
    38   22   23 ar
    39   22   37 1
    40   23   24 ar
    41   24   38 1
@<TRIPOS>Similarity
1.0930
@<TRIPOS>ShapeSim
0.6245
@<TRIPOS>PharmSim
0.4685
# END
# Name:		C12=CC=CC=C1C(C3=NC(C4=CNC5=C4C=CC=C5)=CS3)=CN2
# Created and modified by SHAFTS on Sun Mar 21 16:57:45 2021

# 

@<TRIPOS>MOLECULE
C12=CC=CC=C1C(C3=NC(C4=CNC5=C4C=CC=C5)=CS3)=CN2
   36    40     0
SMALL
USER_CHARGE


@<TRIPOS>ATOM
      1 C1         -0.6829   -5.1239    0.9005 C.2       1 <1>        -0.0483
      2 C2         -1.5488   -4.0955    1.0638 C.2       1 <1>        -0.0238
      3 C3         -3.0237   -4.1920    1.1916 C.2       1 <1>        -0.0258
      4 C4         -3.6727   -5.3716    1.1602 C.2       1 <1>        -0.0092
      5 S5         -5.3970   -5.0579    1.3432 S.3       1 <1>        -0.0738
      6 C6         -5.0723   -3.3301    1.4467 C.2       1 <1>         0.0480
      7 C7         -6.0930   -2.2787    1.6219 C.2       1 <1>        -0.0019
      8 C8         -5.8746   -0.9401    1.6996 C.2       1 <1>        -0.0342
      9 N9         -7.0614   -0.2887    1.8612 N.pl3     1 <1>        -0.3581
     10 C10        -8.1012   -1.1932    1.8940 C.ar      1 <1>        -0.0610
     11 C11        -9.4782   -1.0567    2.0366 C.ar      1 <1>        -0.0759
     12 C12       -10.2840   -2.1742    2.0319 C.ar      1 <1>        -0.0969
     13 C13        -9.7358   -3.4406    1.8867 C.ar      1 <1>        -0.0998
     14 C14        -8.3748   -3.5973    1.7447 C.ar      1 <1>        -0.0894
     15 C15        -7.5480   -2.4756    1.7401 C.ar      1 <1>        -0.0524
     16 N16        -3.7899   -3.1260    1.3496 N.2       1 <1>        -0.3707
     17 C17        -0.7439   -2.8641    1.0898 C.ar      1 <1>        -0.0488
     18 C18        -1.0497   -1.5110    1.2274 C.ar      1 <1>        -0.0843
     19 C19        -0.0461   -0.5827    1.2101 C.ar      1 <1>        -0.1029
     20 C20         1.2753   -0.9772    1.0560 C.ar      1 <1>        -0.1013
     21 C21         1.5990   -2.3094    0.9180 C.ar      1 <1>        -0.0790
     22 C22         0.5929   -3.2703    0.9338 C.ar      1 <1>        -0.0633
     23 N23         0.5956   -4.6433    0.8220 N.pl3     1 <1>        -0.3674
     24 H24        -0.9595   -6.1664    0.8454 H         1 <1>         0.1992
     25 H25        -3.2151   -6.3428    1.0427 H         1 <1>         0.1420
     26 H26        -4.9070   -0.4640    1.6424 H         1 <1>         0.2199
     27 H27        -7.1600    0.6730    1.9416 H         1 <1>         0.3343
     28 H28        -9.9152   -0.0756    2.1511 H         1 <1>         0.1215
     29 H29       -11.3525   -2.0635    2.1429 H         1 <1>         0.1246
     30 H30       -10.3796   -4.3078    1.8853 H         1 <1>         0.1193
     31 H31        -7.9509   -4.5843    1.6325 H         1 <1>         0.1234
     32 H32        -2.0761   -1.1969    1.3470 H         1 <1>         0.1357
     33 H33        -0.2836    0.4655    1.3168 H         1 <1>         0.1075
     34 H34         2.0577   -0.2327    1.0439 H         1 <1>         0.1234
     35 H35         2.6304   -2.6068    0.7986 H         1 <1>         0.1189
     36 H36         1.3883   -5.1897    0.7045 H         1 <1>         0.3302
@<TRIPOS>BOND
     1    1   23 1
     2    1    2 2
     3    1   24 1
     4    2    3 1
     5    2   17 1
     6    3   16 1
     7    3    4 2
     8    4    5 1
     9    4   25 1
    10    5    6 1
    11    6    7 1
    12    6   16 2
    13    7   15 1
    14    7    8 2
    15    8    9 1
    16    8   26 1
    17    9   10 1
    18    9   27 1
    19   10   15 ar
    20   10   11 ar
    21   11   12 ar
    22   11   28 1
    23   12   13 ar
    24   12   29 1
    25   13   14 ar
    26   13   30 1
    27   14   15 ar
    28   14   31 1
    29   17   22 ar
    30   17   18 ar
    31   18   19 ar
    32   18   32 1
    33   19   20 ar
    34   19   33 1
    35   20   21 ar
    36   20   34 1
    37   21   22 ar
    38   21   35 1
    39   22   23 1
    40   23   36 1
@<TRIPOS>Similarity
1.0918
@<TRIPOS>ShapeSim
0.8482
@<TRIPOS>PharmSim
0.2435
# END
# Name:		O=C(C1=CC=CC=C1N/2)C2=C3C(NC4=C\3C=CC=C4)=O
# Created and modified by SHAFTS on Sun Mar 21 16:57:45 2021

# 

@<TRIPOS>MOLECULE
O=C(C1=CC=CC=C1N/2)C2=C3C(NC4=C\3C=CC=C4)=O
   29    32     0
SMALL
USER_CHARGE


@<TRIPOS>ATOM
      1 O1         -1.8889   -5.5165    0.9839 O.2       1 <1>        -0.4823
      2 C2         -1.3023   -4.4517    1.0145 C.2       1 <1>         0.1021
      3 N3          0.0255   -4.2762    0.9029 N.am      1 <1>        -0.3120
      4 C4          0.3673   -2.9303    0.9792 C.ar      1 <1>        -0.0542
      5 C5          1.5961   -2.2849    0.9154 C.ar      1 <1>        -0.0837
      6 C6          1.6636   -0.9092    1.0206 C.ar      1 <1>        -0.1128
      7 C7          0.5135   -0.1566    1.1903 C.ar      1 <1>        -0.1149
      8 C8         -0.7170   -0.7785    1.2561 C.ar      1 <1>        -0.0894
      9 C9         -0.7962   -2.1649    1.1512 C.ar      1 <1>        -0.0475
     10 C10        -1.9243   -3.1180    1.1745 C.2       1 <1>         0.0575
     11 C11        -3.2661   -2.8282    1.3167 C.2       1 <1>         0.0523
     12 N12        -4.2793   -3.7372    1.5156 N.pl3     1 <1>        -0.3877
     13 C13        -5.5054   -3.0956    1.6159 C.ar      1 <1>        -0.0672
     14 C14        -6.7891   -3.5934    1.8147 C.ar      1 <1>        -0.0755
     15 C15        -7.8655   -2.7314    1.8777 C.ar      1 <1>        -0.1069
     16 C16        -7.6846   -1.3641    1.7451 C.ar      1 <1>        -0.1160
     17 C17        -6.4208   -0.8489    1.5473 C.ar      1 <1>        -0.0997
     18 C18        -5.3247   -1.7098    1.4818 C.ar      1 <1>         0.0073
     19 C19        -3.8808   -1.4798    1.2900 C.2       1 <1>         0.1286
     20 O20        -3.3158   -0.4132    1.1404 O.2       1 <1>        -0.4419
     21 H21         0.6642   -4.9965    0.7846 H         1 <1>         0.3155
     22 H22         2.5007   -2.8600    0.7837 H         1 <1>         0.1087
     23 H23         2.6228   -0.4156    0.9704 H         1 <1>         0.1025
     24 H24         0.5795    0.9183    1.2715 H         1 <1>         0.0970
     25 H25        -1.6146   -0.1924    1.3881 H         1 <1>         0.1468
     26 H26        -6.9440   -4.6571    1.9197 H         1 <1>         0.1141
     27 H27        -8.8586   -3.1267    2.0317 H         1 <1>         0.1217
     28 H28        -8.5351   -0.7005    1.7963 H         1 <1>         0.0851
     29 H29        -6.2800    0.2168    1.4435 H         1 <1>         0.1224
@<TRIPOS>BOND
     1    1    2 2
     2    2   10 1
     3    2    3 am
     4    3    4 1
     5    3   21 1
     6    4    9 ar
     7    4    5 ar
     8    5    6 ar
     9    5   22 1
    10    6    7 ar
    11    6   23 1
    12    7    8 ar
    13    7   24 1
    14    8    9 ar
    15    8   25 1
    16    9   10 1
    17   10   11 2
    18   11   19 1
    19   11   12 1
    20   12   13 1
    21   13   18 ar
    22   13   14 ar
    23   14   15 ar
    24   14   26 1
    25   15   16 ar
    26   15   27 1
    27   16   17 ar
    28   16   28 1
    29   17   18 ar
    30   17   29 1
    31   18   19 1
    32   19   20 2
@<TRIPOS>Similarity
1.0874
@<TRIPOS>ShapeSim
0.7677
@<TRIPOS>PharmSim
0.3197
# END
# Name:		COC1=CC=C(C=C1)C2=C(C(=O)C3=C(C=C(C=C3O2)O)O)O
# Created and modified by SHAFTS on Sun Mar 21 16:57:45 2021

# 

@<TRIPOS>MOLECULE
COC1=CC=C(C=C1)C2=C(C(=O)C3=C(C=C(C=C3O2)O)O)O
   33    35     0
SMALL
USER_CHARGE


@<TRIPOS>ATOM
      1 C1         -9.8983   -0.2711    1.1736 C.3       1 <1>         0.0235
      2 O2         -9.4070   -1.3305    1.9971 O.3       1 <1>        -0.4202
      3 C3         -8.1003   -1.6698    1.8506 C.ar      1 <1>        -0.0176
      4 C4         -7.3067   -0.9903    0.9347 C.ar      1 <1>        -0.0679
      5 C5         -5.9807   -1.3310    0.7827 C.ar      1 <1>        -0.0752
      6 C6         -5.4338   -2.3623    1.5517 C.ar      1 <1>        -0.0181
      7 C7         -4.0148   -2.7304    1.3930 C.2       1 <1>         0.0809
      8 C8         -3.6893   -4.0471    1.2630 C.2       1 <1>         0.0825
      9 O9         -4.6617   -4.9990    1.2798 O.3       1 <1>        -0.4212
     10 C10        -2.3282   -4.4178    1.1094 C.2       1 <1>         0.0933
     11 O11        -1.9990   -5.5871    0.9898 O.2       1 <1>        -0.4902
     12 C12        -1.3291   -3.3373    1.0993 C.ar      1 <1>         0.0409
     13 C13         0.0366   -3.6119    0.9521 C.ar      1 <1>        -0.0241
     14 O14         0.4656   -4.8921    0.8149 O.3       1 <1>        -0.4308
     15 C15         0.9441   -2.5689    0.9473 C.ar      1 <1>        -0.0342
     16 C16         0.5026   -1.2578    1.0881 C.ar      1 <1>        -0.0602
     17 O17         1.4024   -0.2413    1.0823 O.3       1 <1>        -0.5656
     18 C18        -0.8474   -0.9785    1.2336 C.ar      1 <1>        -0.0255
     19 C19        -1.7730   -2.0106    1.2410 C.ar      1 <1>         0.0324
     20 O20        -3.0910   -1.7543    1.3765 O.3       1 <1>        -0.3361
     21 C21        -6.2360   -3.0432    2.4720 C.ar      1 <1>        -0.0617
     22 C22        -7.5594   -2.6918    2.6213 C.ar      1 <1>        -0.0538
     23 H23       -10.9531   -0.1017    1.3905 H         1 <1>         0.1211
     24 H24        -9.3347    0.6392    1.3780 H         1 <1>         0.0922
     25 H25        -9.7822   -0.5427    0.1245 H         1 <1>         0.0922
     26 H26        -7.7302   -0.1938    0.3407 H         1 <1>         0.1112
     27 H27        -5.3647   -0.8025    0.0702 H         1 <1>         0.1374
     28 H28        -4.3300   -5.9020    1.1807 H         1 <1>         0.3700
     29 H29         0.5089   -5.1962   -0.1021 H         1 <1>         0.3510
     30 H30         1.9987   -2.7730    0.8342 H         1 <1>         0.1034
     31 H31        -1.1784    0.0438    1.3419 H         1 <1>         0.1034
     32 H32        -5.8176   -3.8407    3.0682 H         1 <1>         0.1522
     33 H33        -8.1799   -3.2172    3.3322 H         1 <1>         0.1248
@<TRIPOS>BOND
     1    1    2 1
     2    1   23 1
     3    1   24 1
     4    1   25 1
     5    2    3 1
     6    3   22 ar
     7    3    4 ar
     8    4    5 ar
     9    4   26 1
    10    5    6 ar
    11    5   27 1
    12    6    7 1
    13    6   21 ar
    14    7   20 1
    15    7    8 2
    16    8    9 1
    17    8   10 1
    18    9   28 1
    19   10   11 2
    20   10   12 1
    21   12   19 ar
    22   12   13 ar
    23   13   14 1
    24   13   15 ar
    25   14   29 1
    26   15   16 ar
    27   15   30 1
    28   16   17 1
    29   16   18 ar
    30   18   19 ar
    31   18   31 1
    32   19   20 1
    33   21   22 ar
    34   21   32 1
    35   22   33 1
@<TRIPOS>Similarity
1.0868
@<TRIPOS>ShapeSim
0.7965
@<TRIPOS>PharmSim
0.2903
# END
# Name:		C1CC(=CC2=CC=CS2)C(=O)C1=CC3=CC=CS3
# Created and modified by SHAFTS on Sun Mar 21 16:57:45 2021

# 

@<TRIPOS>MOLECULE
C1CC(=CC2=CC=CS2)C(=O)C1=CC3=CC=CS3
   30    32     0
SMALL
USER_CHARGE


@<TRIPOS>ATOM
      1 O1         -1.9369   -5.0758    1.0226 O.2       1 <1>        -0.4621
      2 C2         -2.0308   -3.8627    1.1226 C.2       1 <1>         0.0734
      3 C3         -3.2512   -3.1727    1.2873 C.2       1 <1>        -0.0285
      4 C4         -4.4788   -3.7462    1.3576 C.2       1 <1>        -0.0635
      5 C5         -5.6290   -2.9380    1.5253 C.2       1 <1>        -0.0220
      6 C6         -6.9176   -3.3971    1.6153 C.2       1 <1>        -0.0980
      7 C7         -7.8408   -2.3917    1.7755 C.2       1 <1>        -0.1119
      8 C8         -7.3323   -1.1540    1.8156 C.2       1 <1>        -0.0480
      9 S9         -5.6337   -1.1849    1.6590 S.3       1 <1>        -0.1069
     10 C10        -2.9672   -1.6920    1.3732 C.3       1 <1>        -0.0305
     11 C11        -1.4407   -1.5630    1.2421 C.3       1 <1>        -0.0292
     12 C12        -0.9320   -2.9771    1.0939 C.2       1 <1>        -0.0247
     13 C13         0.3681   -3.3370    0.9490 C.2       1 <1>        -0.0615
     14 C14         0.7350   -4.7031    1.0059 C.2       1 <1>        -0.0139
     15 C15         1.6458   -5.3171    0.1856 C.2       1 <1>        -0.1003
     16 C16         1.8095   -6.6533    0.4625 C.2       1 <1>        -0.1128
     17 C17         1.0631   -7.1207    1.4707 C.2       1 <1>        -0.0400
     18 S18         0.1013   -5.8832    2.1449 S.3       1 <1>        -0.0891
     19 H19        -4.5785   -4.8192    1.2856 H         1 <1>         0.1679
     20 H20        -7.1809   -4.4434    1.5652 H         1 <1>         0.1363
     21 H21        -8.8997   -2.5859    1.8622 H         1 <1>         0.1180
     22 H22        -7.9191   -0.2553    1.9360 H         1 <1>         0.1283
     23 H23        -3.4622   -1.1646    0.5576 H         1 <1>         0.0703
     24 H24        -3.2984   -1.2989    2.3343 H         1 <1>         0.0703
     25 H25        -1.1858   -0.9721    0.3623 H         1 <1>         0.0758
     26 H26        -1.0219   -1.1065    2.1389 H         1 <1>         0.0758
     27 H27         1.1231   -2.5812    0.7902 H         1 <1>         0.1628
     28 H28         2.1803   -4.8028   -0.5993 H         1 <1>         0.1281
     29 H29         2.4906   -7.2809   -0.0932 H         1 <1>         0.1155
     30 H30         1.0717   -8.1445    1.8146 H         1 <1>         0.1304
@<TRIPOS>BOND
     1    1    2 2
     2    2   12 1
     3    2    3 1
     4    3    4 2
     5    3   10 1
     6    4    5 1
     7    4   19 1
     8    5    9 1
     9    5    6 2
    10    6    7 1
    11    6   20 1
    12    7    8 2
    13    7   21 1
    14    8    9 1
    15    8   22 1
    16   10   11 1
    17   10   23 1
    18   10   24 1
    19   11   12 1
    20   11   25 1
    21   11   26 1
    22   12   13 2
    23   13   14 1
    24   13   27 1
    25   14   18 1
    26   14   15 2
    27   15   16 1
    28   15   28 1
    29   16   17 2
    30   16   29 1
    31   17   18 1
    32   17   30 1
@<TRIPOS>Similarity
1.0864
@<TRIPOS>ShapeSim
0.6910
@<TRIPOS>PharmSim
0.3954
# END
# Name:		ClC1=CC=C(C(C2=C(N)C(C#N)=C(NCC=C)S2)=O)C=C1
# Created and modified by SHAFTS on Sun Mar 21 16:57:45 2021

# 

@<TRIPOS>MOLECULE
ClC1=CC=C(C(C2=C(N)C(C#N)=C(NCC=C)S2)=O)C=C1
   33    34     0
SMALL
USER_CHARGE


@<TRIPOS>ATOM
      1 C1         -7.1274    3.5801    2.9354 C.2       1 <1>        -0.1252
      2 C2         -7.3895    2.7196    1.9830 C.2       1 <1>        -0.1181
      3 C3         -6.5669    1.4635    1.8551 C.3       1 <1>        -0.0286
      4 N4         -7.4518    0.2961    1.8739 N.pl3     1 <1>        -0.3787
      5 C5         -6.9233   -0.9690    1.7701 C.2       1 <1>         0.0592
      6 C6         -7.6674   -2.1301    1.7718 C.2       1 <1>         0.1106
      7 C7         -9.0950   -2.1421    1.8844 C.1       1 <1>         0.0484
      8 N8        -10.2274   -2.1517    1.9736 N.1       1 <1>        -0.3896
      9 C9         -6.9052   -3.2903    1.6542 C.2       1 <1>        -0.0250
     10 N10        -7.4513   -4.5641    1.6343 N.pl3     1 <1>        -0.3849
     11 C11        -5.5559   -3.0430    1.5595 C.2       1 <1>         0.0941
     12 C12        -4.5600   -4.0297    1.4316 C.2       1 <1>         0.0941
     13 O13        -4.8750   -5.1985    1.2843 O.2       1 <1>        -0.4762
     14 C14        -3.1311   -3.6486    1.4757 C.ar      1 <1>         0.0052
     15 C15        -2.7289   -2.5197    2.1915 C.ar      1 <1>        -0.0687
     16 C16        -1.3956   -2.1693    2.2291 C.ar      1 <1>        -0.0683
     17 C17        -0.4564   -2.9348    1.5582 C.ar      1 <1>        -0.0127
     18 Cl18        1.2202   -2.4876    1.6100 Cl        1 <1>        -0.1378
     19 C19        -0.8496   -4.0560    0.8464 C.ar      1 <1>        -0.0657
     20 C20        -2.1793   -4.4197    0.8067 C.ar      1 <1>        -0.0641
     21 S21        -5.2606   -1.3127    1.6145 S.3       1 <1>        -0.0179
     22 H22        -6.3217    3.3893    3.6288 H         1 <1>         0.0870
     23 H23        -7.7141    4.4825    3.0244 H         1 <1>         0.0942
     24 H24        -8.1951    2.9104    1.2896 H         1 <1>         0.0984
     25 H25        -6.0140    1.4852    0.9160 H         1 <1>         0.1149
     26 H26        -5.8662    1.4016    2.6878 H         1 <1>         0.1077
     27 H27        -8.4106    0.4156    1.9595 H         1 <1>         0.3051
     28 H28        -8.4116   -4.6812    1.7047 H         1 <1>         0.2698
     29 H29        -6.8731   -5.3384    1.5500 H         1 <1>         0.2855
     30 H30        -3.4605   -1.9217    2.7144 H         1 <1>         0.1393
     31 H31        -1.0833   -1.2961    2.7826 H         1 <1>         0.1364
     32 H32        -0.1129   -4.6491    0.3247 H         1 <1>         0.1352
     33 H33        -2.4848   -5.2944    0.2517 H         1 <1>         0.1464
@<TRIPOS>BOND
     1    1    2 2
     2    1   22 1
     3    1   23 1
     4    2    3 1
     5    2   24 1
     6    3    4 1
     7    3   25 1
     8    3   26 1
     9    4    5 1
    10    4   27 1
    11    5   21 1
    12    5    6 2
    13    6    7 1
    14    6    9 1
    15    7    8 3
    16    9   10 1
    17    9   11 2
    18   10   28 1
    19   10   29 1
    20   11   12 1
    21   11   21 1
    22   12   13 2
    23   12   14 1
    24   14   20 ar
    25   14   15 ar
    26   15   16 ar
    27   15   30 1
    28   16   17 ar
    29   16   31 1
    30   17   18 1
    31   17   19 ar
    32   19   20 ar
    33   19   32 1
    34   20   33 1
@<TRIPOS>Similarity
1.0838
@<TRIPOS>ShapeSim
0.7337
@<TRIPOS>PharmSim
0.3502
# END
# Name:		CC1=C2C=CN=CC2=C(C3=C1N(C4=C3C=C(C=C4)OC)CCCN)C
# Created and modified by SHAFTS on Sun Mar 21 16:57:45 2021

# 

@<TRIPOS>MOLECULE
CC1=C2C=CN=CC2=C(C3=C1N(C4=C3C=C(C=C4)OC)CCCN)C
   49    52     0
SMALL
USER_CHARGE


@<TRIPOS>ATOM
      1 C1          0.6476   -3.7881    0.8820 C.3       1 <1>         0.0262
      2 O2         -0.4280   -2.8636    1.0566 O.3       1 <1>        -0.4169
      3 C3         -1.6824   -3.3833    1.1332 C.ar      1 <1>        -0.0050
      4 C4         -2.7690   -2.5432    1.2963 C.ar      1 <1>        -0.0357
      5 C5         -4.0517   -3.0800    1.3738 C.ar      1 <1>        -0.0301
      6 C6         -4.2408   -4.4658    1.2868 C.ar      1 <1>        -0.0401
      7 C7         -3.1371   -5.2968    1.1228 C.ar      1 <1>        -0.0653
      8 C8         -1.8711   -4.7575    1.0416 C.ar      1 <1>        -0.0593
      9 N9         -5.5980   -4.7333    1.3915 N.pl3     1 <1>        -0.3682
     10 C10        -6.1936   -6.0710    1.3456 C.3       1 <1>        -0.0131
     11 C11        -6.2739   -6.6424    2.7627 C.3       1 <1>        -0.0521
     12 C12        -6.8958   -8.0394    2.7147 C.3       1 <1>        -0.1152
     13 N13        -6.9730   -8.5880    4.0753 N.4       1 <1>         0.4445
     14 H14        -7.5436   -7.9854    4.6490 H         1 <1>         0.1473
     15 H15        -7.3832   -9.5094    4.0436 H         1 <1>         0.1473
     16 H16        -6.0451   -8.6462    4.4676 H         1 <1>         0.1473
     17 C17        -6.3095   -3.5554    1.5455 C.ar      1 <1>        -0.0304
     18 C18        -5.3912   -2.4812    1.5419 C.ar      1 <1>        -0.0231
     19 C19        -5.8269   -1.1764    1.6802 C.ar      1 <1>        -0.0675
     20 C20        -4.8361   -0.0409    1.6740 C.3       1 <1>        -0.0235
     21 C21        -7.1949   -0.9175    1.8254 C.ar      1 <1>        -0.0302
     22 C22        -7.6901    0.3902    1.9688 C.ar      1 <1>        -0.0170
     23 N23        -8.9798    0.5908    2.1020 N.ar      1 <1>        -0.3983
     24 C24        -9.8641   -0.3986    2.1089 C.ar      1 <1>        -0.0452
     25 C25        -9.4888   -1.6996    1.9771 C.ar      1 <1>        -0.0632
     26 C26        -8.1194   -1.9980    1.8292 C.ar      1 <1>        -0.0663
     27 C27        -7.6620   -3.3114    1.6883 C.ar      1 <1>        -0.0621
     28 C28        -8.6407   -4.4573    1.6917 C.3       1 <1>        -0.0348
     29 H29         1.5909   -3.2437    0.8365 H         1 <1>         0.1292
     30 H30         0.6693   -4.4830    1.7214 H         1 <1>         0.0930
     31 H31         0.5032   -4.3426   -0.0453 H         1 <1>         0.0930
     32 H32        -2.6233   -1.4752    1.3637 H         1 <1>         0.1468
     33 H33        -3.2728   -6.3661    1.0547 H         1 <1>         0.1257
     34 H34        -1.0186   -5.4081    0.9143 H         1 <1>         0.1267
     35 H35        -7.1959   -6.0082    0.9219 H         1 <1>         0.1311
     36 H36        -5.5771   -6.7221    0.7257 H         1 <1>         0.1239
     37 H37        -5.2716   -6.7052    3.1864 H         1 <1>         0.0682
     38 H38        -6.8903   -5.9914    3.3825 H         1 <1>         0.0682
     39 H39        -7.8981   -7.9766    2.2909 H         1 <1>         0.0908
     40 H40        -6.2794   -8.6905    2.0948 H         1 <1>         0.0908
     41 H41        -4.6915    0.3095    0.6520 H         1 <1>         0.0727
     42 H42        -5.2158    0.7759    2.2878 H         1 <1>         0.0655
     43 H43        -3.8846   -0.3869    2.0777 H         1 <1>         0.0655
     44 H44        -7.0096    1.2289    1.9696 H         1 <1>         0.2275
     45 H45       -10.9122   -0.1643    2.2229 H         1 <1>         0.1963
     46 H46       -10.2261   -2.4887    1.9859 H         1 <1>         0.1269
     47 H47        -8.8893   -4.7259    0.6649 H         1 <1>         0.0561
     48 H48        -8.1937   -5.3155    2.1936 H         1 <1>         0.0489
     49 H49        -9.5470   -4.1595    2.2189 H         1 <1>         0.0632
@<TRIPOS>BOND
     1    1    2 1
     2    1   29 1
     3    1   30 1
     4    1   31 1
     5    2    3 1
     6    3    8 ar
     7    3    4 ar
     8    4    5 ar
     9    4   32 1
    10    5   18 1
    11    5    6 ar
    12    6    7 ar
    13    6    9 1
    14    7    8 ar
    15    7   33 1
    16    8   34 1
    17    9   10 1
    18    9   17 1
    19   10   11 1
    20   10   35 1
    21   10   36 1
    22   11   12 1
    23   11   37 1
    24   11   38 1
    25   12   13 1
    26   12   39 1
    27   12   40 1
    28   13   14 1
    29   13   15 1
    30   13   16 1
    31   17   27 ar
    32   17   18 ar
    33   18   19 ar
    34   19   20 1
    35   19   21 ar
    36   20   41 1
    37   20   42 1
    38   20   43 1
    39   21   26 ar
    40   21   22 ar
    41   22   23 ar
    42   22   44 1
    43   23   24 ar
    44   24   25 ar
    45   24   45 1
    46   25   26 ar
    47   25   46 1
    48   26   27 ar
    49   27   28 1
    50   28   47 1
    51   28   48 1
    52   28   49 1
@<TRIPOS>Similarity
1.0829
@<TRIPOS>ShapeSim
0.7546
@<TRIPOS>PharmSim
0.3283
# END
# Name:		CC1=C4C(C=NC=C4)=C(C)C3=C1N(CCCN)C2=CC=C(OC)C=C23
# Created and modified by SHAFTS on Sun Mar 21 16:57:45 2021

# 

@<TRIPOS>MOLECULE
CC1=C4C(C=NC=C4)=C(C)C3=C1N(CCCN)C2=CC=C(OC)C=C23
   49    52     0
SMALL
USER_CHARGE


@<TRIPOS>ATOM
      1 C1          0.6476   -3.7881    0.8820 C.3       1 <1>         0.0262
      2 O2         -0.4280   -2.8636    1.0566 O.3       1 <1>        -0.4169
      3 C3         -1.6824   -3.3833    1.1332 C.ar      1 <1>        -0.0050
      4 C4         -2.7690   -2.5432    1.2963 C.ar      1 <1>        -0.0357
      5 C5         -4.0517   -3.0800    1.3738 C.ar      1 <1>        -0.0301
      6 C6         -4.2408   -4.4658    1.2868 C.ar      1 <1>        -0.0401
      7 C7         -3.1371   -5.2968    1.1228 C.ar      1 <1>        -0.0653
      8 C8         -1.8711   -4.7575    1.0416 C.ar      1 <1>        -0.0593
      9 N9         -5.5980   -4.7333    1.3915 N.pl3     1 <1>        -0.3682
     10 C10        -6.1936   -6.0710    1.3456 C.3       1 <1>        -0.0131
     11 C11        -6.2739   -6.6424    2.7627 C.3       1 <1>        -0.0521
     12 C12        -6.8958   -8.0394    2.7147 C.3       1 <1>        -0.1152
     13 N13        -6.9730   -8.5880    4.0753 N.4       1 <1>         0.4445
     14 H14        -7.5436   -7.9854    4.6490 H         1 <1>         0.1473
     15 H15        -7.3832   -9.5094    4.0436 H         1 <1>         0.1473
     16 H16        -6.0451   -8.6462    4.4676 H         1 <1>         0.1473
     17 C17        -6.3095   -3.5554    1.5455 C.ar      1 <1>        -0.0304
     18 C18        -5.3912   -2.4812    1.5419 C.ar      1 <1>        -0.0231
     19 C19        -5.8269   -1.1764    1.6802 C.ar      1 <1>        -0.0675
     20 C20        -4.8361   -0.0409    1.6740 C.3       1 <1>        -0.0235
     21 C21        -7.1949   -0.9175    1.8254 C.ar      1 <1>        -0.0302
     22 C22        -7.6901    0.3902    1.9688 C.ar      1 <1>        -0.0170
     23 N23        -8.9798    0.5908    2.1020 N.ar      1 <1>        -0.3983
     24 C24        -9.8641   -0.3986    2.1089 C.ar      1 <1>        -0.0452
     25 C25        -9.4888   -1.6996    1.9771 C.ar      1 <1>        -0.0632
     26 C26        -8.1194   -1.9980    1.8292 C.ar      1 <1>        -0.0663
     27 C27        -7.6620   -3.3114    1.6883 C.ar      1 <1>        -0.0621
     28 C28        -8.6407   -4.4573    1.6917 C.3       1 <1>        -0.0348
     29 H29         1.5909   -3.2437    0.8365 H         1 <1>         0.1292
     30 H30         0.6693   -4.4830    1.7214 H         1 <1>         0.0930
     31 H31         0.5032   -4.3426   -0.0453 H         1 <1>         0.0930
     32 H32        -2.6233   -1.4752    1.3637 H         1 <1>         0.1468
     33 H33        -3.2728   -6.3661    1.0547 H         1 <1>         0.1257
     34 H34        -1.0186   -5.4081    0.9143 H         1 <1>         0.1267
     35 H35        -7.1959   -6.0082    0.9219 H         1 <1>         0.1311
     36 H36        -5.5771   -6.7221    0.7257 H         1 <1>         0.1239
     37 H37        -5.2716   -6.7052    3.1864 H         1 <1>         0.0682
     38 H38        -6.8903   -5.9914    3.3825 H         1 <1>         0.0682
     39 H39        -7.8981   -7.9766    2.2909 H         1 <1>         0.0908
     40 H40        -6.2794   -8.6905    2.0948 H         1 <1>         0.0908
     41 H41        -4.6915    0.3095    0.6520 H         1 <1>         0.0727
     42 H42        -5.2158    0.7759    2.2878 H         1 <1>         0.0655
     43 H43        -3.8846   -0.3869    2.0777 H         1 <1>         0.0655
     44 H44        -7.0096    1.2289    1.9696 H         1 <1>         0.2275
     45 H45       -10.9122   -0.1643    2.2229 H         1 <1>         0.1963
     46 H46       -10.2261   -2.4887    1.9859 H         1 <1>         0.1269
     47 H47        -8.8893   -4.7259    0.6649 H         1 <1>         0.0561
     48 H48        -8.1937   -5.3155    2.1936 H         1 <1>         0.0489
     49 H49        -9.5470   -4.1595    2.2189 H         1 <1>         0.0632
@<TRIPOS>BOND
     1    1    2 1
     2    1   29 1
     3    1   30 1
     4    1   31 1
     5    2    3 1
     6    3    8 ar
     7    3    4 ar
     8    4    5 ar
     9    4   32 1
    10    5   18 1
    11    5    6 ar
    12    6    7 ar
    13    6    9 1
    14    7    8 ar
    15    7   33 1
    16    8   34 1
    17    9   10 1
    18    9   17 1
    19   10   11 1
    20   10   35 1
    21   10   36 1
    22   11   12 1
    23   11   37 1
    24   11   38 1
    25   12   13 1
    26   12   39 1
    27   12   40 1
    28   13   14 1
    29   13   15 1
    30   13   16 1
    31   17   27 ar
    32   17   18 ar
    33   18   19 ar
    34   19   20 1
    35   19   21 ar
    36   20   41 1
    37   20   42 1
    38   20   43 1
    39   21   26 ar
    40   21   22 ar
    41   22   23 ar
    42   22   44 1
    43   23   24 ar
    44   24   25 ar
    45   24   45 1
    46   25   26 ar
    47   25   46 1
    48   26   27 ar
    49   27   28 1
    50   28   47 1
    51   28   48 1
    52   28   49 1
@<TRIPOS>Similarity
1.0829
@<TRIPOS>ShapeSim
0.7546
@<TRIPOS>PharmSim
0.3283
# END
# Name:		C1CN2CCC1C(C2)NC3=C(C(=O)NC4=C3C=C(C=C4)Cl)C5=NC6=CC=CC=C6N5
# Created and modified by SHAFTS on Sun Mar 21 16:57:45 2021

# 

@<TRIPOS>MOLECULE
C1CN2CCC1C(C2)NC3=C(C(=O)NC4=C3C=C(C=C4)Cl)C5=NC6=CC=CC=C6N5
   53    58     0
SMALL
USER_CHARGE


@<TRIPOS>ATOM
      1 O1         -4.9933   -5.1879    1.2959 O.2       1 <1>        -0.4804
      2 C2         -3.9464   -4.5662    1.2433 C.2       1 <1>         0.1432
      3 N3         -2.7940   -5.2365    1.0806 N.am      1 <1>        -0.2797
      4 C4         -1.5792   -4.5827    1.0138 C.ar      1 <1>        -0.0111
      5 C5         -0.3986   -5.2977    0.8447 C.ar      1 <1>        -0.0414
      6 C6          0.8065   -4.6316    0.7793 C.ar      1 <1>        -0.0518
      7 C7          0.8572   -3.2477    0.8814 C.ar      1 <1>         0.0008
      8 Cl8         2.3868   -2.4311    0.7968 Cl        1 <1>        -0.1352
      9 C9         -0.3003   -2.5193    1.0490 C.ar      1 <1>        -0.0389
     10 C10        -1.5292   -3.1810    1.1169 C.ar      1 <1>         0.0133
     11 C11        -2.7813   -2.4342    1.2945 C.2       1 <1>         0.0115
     12 N12        -2.7777   -1.0644    1.3992 N.pl3     1 <1>        -0.3897
     13 C13        -2.2286   -0.2482    0.3135 C.3       1 <1>        -0.0529
     14 H14        -1.4265   -0.7937   -0.1837 H         1 <1>         0.1289
     15 C15        -3.3331    0.0727   -0.6959 C.3       1 <1>        -0.0760
     16 N16        -3.5159    1.5227   -0.7952 N.4       1 <1>         0.4087
     17 H17        -4.2443    1.7073   -1.4686 H         1 <1>         0.1714
     18 C18        -3.9259    2.0803    0.4957 C.3       1 <1>        -0.0982
     19 C19        -2.8412    1.8260    1.5448 C.3       1 <1>        -0.0631
     20 C20        -1.6795    1.0655    0.8851 C.3       1 <1>        -0.0463
     21 C21        -1.1451    1.9128   -0.2772 C.3       1 <1>        -0.0616
     22 C22        -2.2841    2.1673   -1.2566 C.3       1 <1>        -0.0980
     23 C23        -3.9758   -3.1553    1.3493 C.2       1 <1>         0.1365
     24 C24        -5.2574   -2.4525    1.5261 C.2       1 <1>         0.0435
     25 N25        -5.4105   -1.1481    1.5275 N.2       1 <1>        -0.3755
     26 C26        -6.7185   -0.8431    1.7147 C.ar      1 <1>        -0.0269
     27 C27        -7.4195    0.3639    1.7981 C.ar      1 <1>        -0.0661
     28 C28        -8.7814    0.3510    1.9984 C.ar      1 <1>        -0.0915
     29 C29        -9.4645   -0.8503    2.1182 C.ar      1 <1>        -0.0924
     30 C30        -8.7882   -2.0503    2.0382 C.ar      1 <1>        -0.0696
     31 C31        -7.4162   -2.0577    1.8369 C.ar      1 <1>        -0.0359
     32 N32        -6.4719   -3.0607    1.7084 N.pl3     1 <1>        -0.3224
     33 H33        -2.8153   -6.2037    1.0086 H         1 <1>         0.3533
     34 H34        -0.4257   -6.3744    0.7647 H         1 <1>         0.1476
     35 H35         1.7204   -5.1917    0.6477 H         1 <1>         0.1591
     36 H36        -0.2580   -1.4431    1.1281 H         1 <1>         0.1580
     37 H37        -3.1388   -0.6376    2.1918 H         1 <1>         0.3029
     38 H38        -3.0571   -0.3248   -1.6726 H         1 <1>         0.0927
     39 H39        -4.2657   -0.3879   -0.3702 H         1 <1>         0.1070
     40 H40        -4.0843    3.1538    0.3921 H         1 <1>         0.0887
     41 H41        -4.8552    1.6085    0.8147 H         1 <1>         0.0887
     42 H42        -2.4796    2.7776    1.9345 H         1 <1>         0.0705
     43 H43        -3.2527    1.2285    2.3583 H         1 <1>         0.0705
     44 H44        -0.8964    0.8643    1.6161 H         1 <1>         0.0928
     45 H45        -0.7768    2.8652    0.1041 H         1 <1>         0.0780
     46 H46        -0.3361    1.3794   -0.7763 H         1 <1>         0.0709
     47 H47        -2.0206    1.7582   -2.2320 H         1 <1>         0.0887
     48 H48        -2.4485    3.2409   -1.3491 H         1 <1>         0.0887
     49 H49        -6.8942    1.3030    1.7061 H         1 <1>         0.1300
     50 H50        -9.3222    1.2836    2.0632 H         1 <1>         0.1224
     51 H51       -10.5330   -0.8463    2.2755 H         1 <1>         0.1259
     52 H52        -9.3263   -2.9820    2.1324 H         1 <1>         0.1329
     53 H53        -6.6382   -4.0157    1.7423 H         1 <1>         0.3577
@<TRIPOS>BOND
     1    1    2 2
     2    2   23 1
     3    2    3 am
     4    3    4 1
     5    3   33 1
     6    4   10 ar
     7    4    5 ar
     8    5    6 ar
     9    5   34 1
    10    6    7 ar
    11    6   35 1
    12    7    8 1
    13    7    9 ar
    14    9   10 ar
    15    9   36 1
    16   10   11 1
    17   11   12 1
    18   11   23 2
    19   12   13 1
    20   12   37 1
    21   13   14 1
    22   13   20 1
    23   13   15 1
    24   15   16 1
    25   15   38 1
    26   15   39 1
    27   16   17 1
    28   16   22 1
    29   16   18 1
    30   18   19 1
    31   18   40 1
    32   18   41 1
    33   19   20 1
    34   19   42 1
    35   19   43 1
    36   20   21 1
    37   20   44 1
    38   21   22 1
    39   21   45 1
    40   21   46 1
    41   22   47 1
    42   22   48 1
    43   23   24 1
    44   24   32 1
    45   24   25 2
    46   25   26 1
    47   26   31 ar
    48   26   27 ar
    49   27   28 ar
    50   27   49 1
    51   28   29 ar
    52   28   50 1
    53   29   30 ar
    54   29   51 1
    55   30   31 ar
    56   30   52 1
    57   31   32 1
    58   32   53 1
@<TRIPOS>Similarity
1.0800
@<TRIPOS>ShapeSim
0.7528
@<TRIPOS>PharmSim
0.3273
# END
# Name:		C1CN(C(=O)C1=CC2=CC3=C(C=C2)OCO3)C=O
# Created and modified by SHAFTS on Sun Mar 21 16:57:45 2021

# 

@<TRIPOS>MOLECULE
C1CN(C(=O)C1=CC2=CC3=C(C=C2)OCO3)C=O
   29    31     0
SMALL
USER_CHARGE


@<TRIPOS>ATOM
      1 O1         -2.1562   -5.1545    1.0368 O.2       1 <1>        -0.4521
      2 C2         -2.0331   -3.9590    1.1963 C.2       1 <1>         0.1373
      3 N3         -3.1220   -3.1901    1.3951 N.am      1 <1>        -0.2578
      4 C4         -3.0909   -1.7375    1.5928 C.3       1 <1>         0.0074
      5 C5         -4.5611   -1.3194    1.7758 C.3       1 <1>        -0.0015
      6 C6         -5.3251   -2.6217    1.6612 C.2       1 <1>         0.0140
      7 C7         -6.6641   -2.7747    1.7541 C.2       1 <1>        -0.0494
      8 C8         -7.5327   -1.5942    1.8616 C.ar      1 <1>        -0.0582
      9 C9         -8.6113   -1.5951    2.7533 C.ar      1 <1>        -0.0706
     10 C10        -9.4238   -0.4871    2.8517 C.ar      1 <1>        -0.0476
     11 C11        -9.1773    0.6330    2.0688 C.ar      1 <1>         0.0321
     12 O12        -9.8230    1.8312    1.9820 O.3       1 <1>        -0.3778
     13 C13        -8.8969    2.7222    1.3332 C.3       1 <1>         0.1118
     14 O14        -8.0799    1.8459    0.5347 O.3       1 <1>        -0.3797
     15 C15        -8.1029    0.6413    1.1769 C.ar      1 <1>         0.0334
     16 C16        -7.2805   -0.4628    1.0765 C.ar      1 <1>        -0.0412
     17 C17        -4.3788   -3.6478    1.4332 C.2       1 <1>         0.1356
     18 O18        -4.6745   -4.8199    1.2946 O.2       1 <1>        -0.4422
     19 H19        -1.0506   -3.5108    1.1836 H         1 <1>         0.3225
     20 H20        -2.5142   -1.4900    2.4841 H         1 <1>         0.1119
     21 H21        -2.6647   -1.2464    0.7180 H         1 <1>         0.1119
     22 H22        -4.7124   -0.8721    2.7581 H         1 <1>         0.0858
     23 H23        -4.8630   -0.6282    0.9889 H         1 <1>         0.0858
     24 H24        -7.0962   -3.7645    1.7496 H         1 <1>         0.1715
     25 H25        -8.8068   -2.4643    3.3637 H         1 <1>         0.1488
     26 H26       -10.2559   -0.4896    3.5402 H         1 <1>         0.1429
     27 H27        -9.4286    3.4324    0.7001 H         1 <1>         0.2070
     28 H28        -8.2889    3.2459    2.0709 H         1 <1>         0.1707
     29 H29        -6.4457   -0.4549    0.3913 H         1 <1>         0.1479
@<TRIPOS>BOND
     1    1    2 2
     2    2    3 am
     3    2   19 1
     4    3   17 am
     5    3    4 1
     6    4    5 1
     7    4   20 1
     8    4   21 1
     9    5    6 1
    10    5   22 1
    11    5   23 1
    12    6    7 2
    13    6   17 1
    14    7    8 1
    15    7   24 1
    16    8   16 ar
    17    8    9 ar
    18    9   10 ar
    19    9   25 1
    20   10   11 ar
    21   10   26 1
    22   11   15 ar
    23   11   12 1
    24   12   13 1
    25   13   14 1
    26   13   27 1
    27   13   28 1
    28   14   15 1
    29   15   16 ar
    30   16   29 1
    31   17   18 2
@<TRIPOS>Similarity
1.0795
@<TRIPOS>ShapeSim
0.6499
@<TRIPOS>PharmSim
0.4296
# END
# Name:		C1CN(C(=O)C1=CC2=CC3=C(C=C2)OCO3)C=O
# Created and modified by SHAFTS on Sun Mar 21 16:57:45 2021

# 

@<TRIPOS>MOLECULE
C1CN(C(=O)C1=CC2=CC3=C(C=C2)OCO3)C=O
   29    31     0
SMALL
USER_CHARGE


@<TRIPOS>ATOM
      1 O1         -2.1562   -5.1545    1.0368 O.2       1 <1>        -0.4521
      2 C2         -2.0331   -3.9590    1.1963 C.2       1 <1>         0.1373
      3 N3         -3.1220   -3.1901    1.3951 N.am      1 <1>        -0.2578
      4 C4         -3.0909   -1.7375    1.5928 C.3       1 <1>         0.0074
      5 C5         -4.5611   -1.3194    1.7758 C.3       1 <1>        -0.0015
      6 C6         -5.3251   -2.6217    1.6612 C.2       1 <1>         0.0140
      7 C7         -6.6641   -2.7747    1.7541 C.2       1 <1>        -0.0494
      8 C8         -7.5327   -1.5942    1.8616 C.ar      1 <1>        -0.0582
      9 C9         -8.6113   -1.5951    2.7533 C.ar      1 <1>        -0.0706
     10 C10        -9.4238   -0.4871    2.8517 C.ar      1 <1>        -0.0476
     11 C11        -9.1773    0.6330    2.0688 C.ar      1 <1>         0.0321
     12 O12        -9.8230    1.8312    1.9820 O.3       1 <1>        -0.3778
     13 C13        -8.8969    2.7222    1.3332 C.3       1 <1>         0.1118
     14 O14        -8.0799    1.8459    0.5347 O.3       1 <1>        -0.3797
     15 C15        -8.1029    0.6413    1.1769 C.ar      1 <1>         0.0334
     16 C16        -7.2805   -0.4628    1.0765 C.ar      1 <1>        -0.0412
     17 C17        -4.3788   -3.6478    1.4332 C.2       1 <1>         0.1356
     18 O18        -4.6745   -4.8199    1.2946 O.2       1 <1>        -0.4422
     19 H19        -1.0506   -3.5108    1.1836 H         1 <1>         0.3225
     20 H20        -2.5142   -1.4900    2.4841 H         1 <1>         0.1119
     21 H21        -2.6647   -1.2464    0.7180 H         1 <1>         0.1119
     22 H22        -4.7124   -0.8721    2.7581 H         1 <1>         0.0858
     23 H23        -4.8630   -0.6282    0.9889 H         1 <1>         0.0858
     24 H24        -7.0962   -3.7645    1.7496 H         1 <1>         0.1715
     25 H25        -8.8068   -2.4643    3.3637 H         1 <1>         0.1488
     26 H26       -10.2559   -0.4896    3.5402 H         1 <1>         0.1429
     27 H27        -9.4286    3.4324    0.7001 H         1 <1>         0.2070
     28 H28        -8.2889    3.2459    2.0709 H         1 <1>         0.1707
     29 H29        -6.4457   -0.4549    0.3913 H         1 <1>         0.1479
@<TRIPOS>BOND
     1    1    2 2
     2    2    3 am
     3    2   19 1
     4    3   17 am
     5    3    4 1
     6    4    5 1
     7    4   20 1
     8    4   21 1
     9    5    6 1
    10    5   22 1
    11    5   23 1
    12    6    7 2
    13    6   17 1
    14    7    8 1
    15    7   24 1
    16    8   16 ar
    17    8    9 ar
    18    9   10 ar
    19    9   25 1
    20   10   11 ar
    21   10   26 1
    22   11   15 ar
    23   11   12 1
    24   12   13 1
    25   13   14 1
    26   13   27 1
    27   13   28 1
    28   14   15 1
    29   15   16 ar
    30   16   29 1
    31   17   18 2
@<TRIPOS>Similarity
1.0795
@<TRIPOS>ShapeSim
0.6499
@<TRIPOS>PharmSim
0.4296
# END
# Name:		CC1=CC2=C(C=C1C=O)N(C3=NC(=O)NC(=O)C3=N2)C
# Created and modified by SHAFTS on Sun Mar 21 16:57:45 2021

# 

@<TRIPOS>MOLECULE
CC1=CC2=C(C=C1C=O)N(C3=NC(=O)NC(=O)C3=N2)C
   29    31     0
SMALL
USER_CHARGE


@<TRIPOS>ATOM
      1 C1         -8.4173   -0.3165    1.9832 C.3       1 <1>        -0.0368
      2 C2         -7.3566   -1.3722    1.8048 C.ar      1 <1>        -0.0815
      3 C3         -6.0506   -1.0066    1.7160 C.ar      1 <1>        -0.0416
      4 C4         -5.0501   -1.9850    1.5486 C.ar      1 <1>         0.0214
      5 C5         -5.4150   -3.3473    1.4743 C.ar      1 <1>         0.0088
      6 C6         -6.7558   -3.7090    1.5670 C.ar      1 <1>        -0.0321
      7 C7         -7.7261   -2.7256    1.7375 C.ar      1 <1>        -0.0021
      8 C8         -9.1468   -3.1048    1.8360 C.2       1 <1>         0.0888
      9 O9         -9.4688   -4.2716    1.7685 O.2       1 <1>        -0.4655
     10 N10        -4.4498   -4.3196    1.3101 N.pl3     1 <1>        -0.3105
     11 C11        -4.8187   -5.7352    1.2313 C.3       1 <1>         0.0067
     12 C12        -3.1467   -3.9339    1.2224 C.2       1 <1>         0.1052
     13 N13        -2.1622   -4.8018    1.0642 N.2       1 <1>        -0.2894
     14 C14        -0.8934   -4.4081    0.9798 C.2       1 <1>         0.1340
     15 O15        -0.0385   -5.2639    0.8338 O.2       1 <1>        -0.4788
     16 N16        -0.4974   -3.1291    1.0451 N.pl3     1 <1>        -0.2731
     17 C17        -1.3893   -2.1241    1.2058 C.2       1 <1>         0.1635
     18 O18        -1.0328   -0.9635    1.2650 O.2       1 <1>        -0.4707
     19 C19        -2.8187   -2.4996    1.3061 C.2       1 <1>         0.1778
     20 N20        -3.7643   -1.6107    1.4613 N.2       1 <1>        -0.3182
     21 H21        -8.5778   -0.1388    3.0466 H         1 <1>         0.0629
     22 H22        -8.0937    0.6081    1.5052 H         1 <1>         0.0629
     23 H23        -9.3475   -0.6553    1.5271 H         1 <1>         0.0558
     24 H24        -5.7785    0.0370    1.7737 H         1 <1>         0.1630
     25 H25        -7.0419   -4.7489    1.5106 H         1 <1>         0.1528
     26 H26        -9.9011   -2.3432    1.9683 H         1 <1>         0.2554
     27 H27        -5.0024   -6.0055    0.1914 H         1 <1>         0.1056
     28 H28        -4.0065   -6.3450    1.6271 H         1 <1>         0.1200
     29 H29        -5.7217   -5.9085    1.8166 H         1 <1>         0.1056
@<TRIPOS>BOND
     1    1    2 1
     2    1   21 1
     3    1   22 1
     4    1   23 1
     5    2    7 ar
     6    2    3 ar
     7    3    4 ar
     8    3   24 1
     9    4   20 1
    10    4    5 ar
    11    5    6 ar
    12    5   10 1
    13    6    7 ar
    14    6   25 1
    15    7    8 1
    16    8    9 2
    17    8   26 1
    18   10   11 1
    19   10   12 1
    20   11   27 1
    21   11   28 1
    22   11   29 1
    23   12   19 1
    24   12   13 2
    25   13   14 1
    26   14   15 2
    27   14   16 1
    28   16   17 1
    29   17   18 2
    30   17   19 1
    31   19   20 2
@<TRIPOS>Similarity
1.0783
@<TRIPOS>ShapeSim
0.7224
@<TRIPOS>PharmSim
0.3559
# END
# Name:		CC(C1=CC2=C(C=C1)C=C(C=C2)OC)C(=O)O
# Created and modified by SHAFTS on Sun Mar 21 16:57:45 2021

# 

@<TRIPOS>MOLECULE
CC(C1=CC2=C(C=C1)C=C(C=C2)OC)C(=O)O
   30    31     0
SMALL
USER_CHARGE


@<TRIPOS>ATOM
      1 C1         -3.8086   -4.7751    1.2255 C.3       1 <1>         0.0300
      2 O2         -5.2298   -4.6997    1.3550 O.3       1 <1>        -0.3200
      3 C3         -5.7711   -3.4618    1.5001 C.ar      1 <1>         0.1100
      4 C4         -4.9361   -2.3405    1.5106 C.ar      1 <1>        -0.2000
      5 C5         -5.4483   -1.0886    1.6542 C.ar      1 <1>        -0.0700
      6 C6         -6.8360   -0.9151    1.7938 C.ar      1 <1>        -0.0700
      7 C7         -7.3989    0.3638    1.9435 C.ar      1 <1>        -0.1200
      8 C8         -8.7471    0.4954    2.0760 C.ar      1 <1>        -0.0200
      9 C9         -9.3465    1.8687    2.2357 C.3       1 <1>        -0.1400
     10 H10        -8.5528    2.6156    2.2210 H         1 <1>         0.0700
     11 C11       -10.0953    1.9465    3.5676 C.3       1 <1>        -0.1200
     12 C12       -10.3058    2.1329    1.1039 C.2       1 <1>         0.5000
     13 O13       -10.4860    1.2846    0.2470 O.co2     1 <1>        -0.5000
     14 O14       -10.9019    3.1948    1.0452 O.co2     1 <1>        -0.5000
     15 C15        -9.5816   -0.6209    2.0656 C.ar      1 <1>        -0.0500
     16 C16        -9.0727   -1.8748    1.9226 C.ar      1 <1>        -0.1300
     17 C17        -7.6849   -2.0505    1.7831 C.ar      1 <1>        -0.0200
     18 C18        -7.1246   -3.3288    1.6284 C.ar      1 <1>        -0.1500
     19 H19        -3.3398   -4.3528    2.1143 H         1 <1>         0.0500
     20 H20        -3.5085   -5.8173    1.1168 H         1 <1>         0.0900
     21 H21        -3.4935   -4.2127    0.3465 H         1 <1>         0.0500
     22 H22        -3.8693   -2.4702    1.4035 H         1 <1>         0.1200
     23 H23        -4.7913   -0.2315    1.6611 H         1 <1>         0.1300
     24 H24        -6.7648    1.2381    1.9537 H         1 <1>         0.1200
     25 H25       -10.5290    2.9398    3.6833 H         1 <1>         0.0600
     26 H26       -10.8891    1.1996    3.5824 H         1 <1>         0.0500
     27 H27        -9.4015    1.7554    4.3863 H         1 <1>         0.0400
     28 H28       -10.6481   -0.4887    2.1728 H         1 <1>         0.1200
     29 H29        -9.7315   -2.7306    1.9164 H         1 <1>         0.1200
     30 H30        -7.7599   -4.2022    1.6144 H         1 <1>         0.1300
@<TRIPOS>BOND
     1    1    2 1
     2    1   19 1
     3    1   20 1
     4    1   21 1
     5    2    3 1
     6    3   18 ar
     7    3    4 ar
     8    4    5 ar
     9    4   22 1
    10    5    6 ar
    11    5   23 1
    12    6   17 ar
    13    6    7 ar
    14    7    8 ar
    15    7   24 1
    16    8    9 1
    17    8   15 ar
    18    9   10 1
    19    9   11 1
    20    9   12 1
    21   11   25 1
    22   11   26 1
    23   11   27 1
    24   12   13 ar
    25   12   14 ar
    26   15   16 ar
    27   15   28 1
    28   16   17 ar
    29   16   29 1
    30   17   18 ar
    31   18   30 1
@<TRIPOS>Similarity
1.0781
@<TRIPOS>ShapeSim
0.6325
@<TRIPOS>PharmSim
0.4455
# END
# Name:		CC1=CC=C(C(C2=C(N)C(C#N)=C(NC(C)C)S2)=O)C=C1
# Created and modified by SHAFTS on Sun Mar 21 16:57:45 2021

# 

@<TRIPOS>MOLECULE
CC1=CC=C(C(C2=C(N)C(C#N)=C(NC(C)C)S2)=O)C=C1
   38    39     0
SMALL
USER_CHARGE


@<TRIPOS>ATOM
      1 C1          0.9059   -2.4080    0.2497 C.3       1 <1>        -0.0413
      2 C2         -0.5141   -2.8404    0.5100 C.ar      1 <1>        -0.1136
      3 C3         -1.5639   -2.0256    0.1247 C.ar      1 <1>        -0.0981
      4 C4         -2.8661   -2.4156    0.3600 C.ar      1 <1>        -0.0797
      5 C5         -3.1233   -3.6348    0.9882 C.ar      1 <1>        -0.0022
      6 C6         -4.5180   -4.0597    1.2434 C.2       1 <1>         0.0917
      7 O7         -4.7981   -5.2460    1.2734 O.2       1 <1>        -0.4767
      8 C8         -5.5209   -3.0943    1.4513 C.2       1 <1>         0.0940
      9 C9         -6.8645   -3.3634    1.5674 C.2       1 <1>        -0.0265
     10 N10        -7.3966   -4.6408    1.4923 N.pl3     1 <1>        -0.3863
     11 C11        -7.6360   -2.2212    1.7689 C.2       1 <1>         0.1112
     12 C12        -9.0597   -2.2572    1.9183 C.1       1 <1>         0.0523
     13 N13       -10.1892   -2.2858    2.0367 N.1       1 <1>        -0.3872
     14 C14        -6.9051   -1.0524    1.8121 C.2       1 <1>         0.0591
     15 N15        -7.4445    0.1982    2.0004 N.pl3     1 <1>        -0.3878
     16 C16        -6.5727    1.3752    2.0293 C.3       1 <1>        -0.0508
     17 C17        -7.3754    2.6144    1.6283 C.3       1 <1>        -0.0453
     18 C18        -6.0162    1.5631    3.4421 C.3       1 <1>        -0.0475
     19 S19        -5.2419   -1.3675    1.6086 S.3       1 <1>        -0.0148
     20 C20        -2.0602   -4.4520    1.3743 C.ar      1 <1>        -0.0751
     21 C21        -0.7626   -4.0530    1.1282 C.ar      1 <1>        -0.0955
     22 H22         1.2208   -2.7658   -0.7305 H         1 <1>         0.0557
     23 H23         0.9649   -1.3200    0.2755 H         1 <1>         0.0557
     24 H24         1.5590   -2.8255    1.0160 H         1 <1>         0.0557
     25 H25        -1.3634   -1.0820   -0.3611 H         1 <1>         0.1226
     26 H26        -3.6846   -1.7786    0.0591 H         1 <1>         0.1280
     27 H27        -6.8124   -5.4021    1.3511 H         1 <1>         0.2851
     28 H28        -8.3534   -4.7737    1.5811 H         1 <1>         0.2695
     29 H29        -8.4022    0.3011    2.1141 H         1 <1>         0.3021
     30 H30        -5.7485    1.2342    1.3300 H         1 <1>         0.1064
     31 H31        -8.1995    2.7554    2.3277 H         1 <1>         0.0502
     32 H32        -6.7268    3.4902    1.6498 H         1 <1>         0.0574
     33 H33        -7.7719    2.4806    0.6218 H         1 <1>         0.0502
     34 H34        -5.4443    0.6803    3.7278 H         1 <1>         0.0460
     35 H35        -5.3676    2.4388    3.4636 H         1 <1>         0.0531
     36 H36        -6.8403    1.7041    4.1414 H         1 <1>         0.0460
     37 H37        -2.2527   -5.3967    1.8609 H         1 <1>         0.1352
     38 H38         0.0611   -4.6845    1.4265 H         1 <1>         0.1214
@<TRIPOS>BOND
     1    1    2 1
     2    1   22 1
     3    1   23 1
     4    1   24 1
     5    2   21 ar
     6    2    3 ar
     7    3    4 ar
     8    3   25 1
     9    4    5 ar
    10    4   26 1
    11    5    6 1
    12    5   20 ar
    13    6    7 2
    14    6    8 1
    15    8   19 1
    16    8    9 2
    17    9   10 1
    18    9   11 1
    19   10   27 1
    20   10   28 1
    21   11   12 1
    22   11   14 2
    23   12   13 3
    24   14   15 1
    25   14   19 1
    26   15   16 1
    27   15   29 1
    28   16   17 1
    29   16   18 1
    30   16   30 1
    31   17   31 1
    32   17   32 1
    33   17   33 1
    34   18   34 1
    35   18   35 1
    36   18   36 1
    37   20   21 ar
    38   20   37 1
    39   21   38 1
@<TRIPOS>Similarity
1.0777
@<TRIPOS>ShapeSim
0.7327
@<TRIPOS>PharmSim
0.3451
# END
# Name:		COC1=C(C=C(C=C1)C2=CC(=O)C3=C(C=C(C=C3O2)O)O)O
# Created and modified by SHAFTS on Sun Mar 21 16:57:45 2021

# 

@<TRIPOS>MOLECULE
COC1=C(C=C(C=C1)C2=CC(=O)C3=C(C=C(C=C3O2)O)O)O
   34    36     0
SMALL
USER_CHARGE


@<TRIPOS>ATOM
      1 C1        -10.7271   -2.4633    2.0443 C.3       1 <1>         0.0283
      2 O2         -9.8338   -1.3479    2.0360 O.3       1 <1>        -0.4059
      3 C3         -8.5102   -1.6188    1.8933 C.ar      1 <1>         0.0280
      4 C4         -8.0832   -2.9322    1.7585 C.ar      1 <1>        -0.0510
      5 C5         -6.7412   -3.2127    1.6139 C.ar      1 <1>        -0.0709
      6 C6         -5.8078   -2.1733    1.6025 C.ar      1 <1>        -0.0160
      7 C7         -4.3714   -2.4712    1.4474 C.2       1 <1>         0.0518
      8 C8         -3.9833   -3.7678    1.3118 C.2       1 <1>         0.0198
      9 C9         -2.6097   -4.0729    1.1620 C.2       1 <1>         0.0849
     10 O10        -2.2259   -5.2248    1.0375 O.2       1 <1>        -0.4694
     11 C11        -1.6613   -2.9461    1.1615 C.ar      1 <1>         0.0669
     12 C12        -0.2842   -3.1551    1.0182 C.ar      1 <1>         0.0075
     13 O13         0.2053   -4.4128    0.8758 O.3       1 <1>        -0.4132
     14 C14         0.5733   -2.0701    1.0224 C.ar      1 <1>        -0.0139
     15 C15         0.0697   -0.7824    1.1680 C.ar      1 <1>        -0.0096
     16 O16         0.9200    0.2758    1.1704 O.3       1 <1>        -0.4243
     17 C17        -1.2930   -0.5684    1.3103 C.ar      1 <1>        -0.0050
     18 C18        -2.1679   -1.6431    1.3085 C.ar      1 <1>         0.0592
     19 O19        -3.4978   -1.4518    1.4401 O.3       1 <1>        -0.3304
     20 C20        -6.2382   -0.8501    1.7379 C.ar      1 <1>        -0.0304
     21 C21        -7.5848   -0.5761    1.8771 C.ar      1 <1>         0.0165
     22 O22        -8.0070    0.7100    2.0086 O.3       1 <1>        -0.4257
     23 H23       -10.6390   -3.0063    1.1034 H         1 <1>         0.0915
     24 H24       -10.4730   -3.1261    2.8715 H         1 <1>         0.0915
     25 H25       -11.7506   -2.1081    2.1645 H         1 <1>         0.1277
     26 H26        -8.8038   -3.7366    1.7672 H         1 <1>         0.1302
     27 H27        -6.4114   -4.2358    1.5099 H         1 <1>         0.1469
     28 H28        -4.7184   -4.5590    1.3189 H         1 <1>         0.1341
     29 H29         0.2662   -4.7094   -0.0426 H         1 <1>         0.3739
     30 H30         1.6367   -2.2234    0.9127 H         1 <1>         0.1436
     31 H31         1.0851    0.6496    0.2940 H         1 <1>         0.3674
     32 H32        -1.6725    0.4364    1.4230 H         1 <1>         0.1477
     33 H33        -5.5198   -0.0437    1.7296 H         1 <1>         0.1591
     34 H34        -8.2068    1.1461    1.1690 H         1 <1>         0.3592
@<TRIPOS>BOND
     1    1    2 1
     2    1   23 1
     3    1   24 1
     4    1   25 1
     5    2    3 1
     6    3   21 ar
     7    3    4 ar
     8    4    5 ar
     9    4   26 1
    10    5    6 ar
    11    5   27 1
    12    6    7 1
    13    6   20 ar
    14    7   19 1
    15    7    8 2
    16    8    9 1
    17    8   28 1
    18    9   10 2
    19    9   11 1
    20   11   18 ar
    21   11   12 ar
    22   12   13 1
    23   12   14 ar
    24   13   29 1
    25   14   15 ar
    26   14   30 1
    27   15   16 1
    28   15   17 ar
    29   16   31 1
    30   17   18 ar
    31   17   32 1
    32   18   19 1
    33   20   21 ar
    34   20   33 1
    35   21   22 1
    36   22   34 1
@<TRIPOS>Similarity
1.0749
@<TRIPOS>ShapeSim
0.7945
@<TRIPOS>PharmSim
0.2804
# END
# Name:		COC1=CC2=C(C=C1)NC(=O)C2=CC3=CN=CN3
# Created and modified by SHAFTS on Sun Mar 21 16:57:45 2021

# 

@<TRIPOS>MOLECULE
COC1=CC2=C(C=C1)NC(=O)C2=CC3=CN=CN3
   29    31     0
SMALL
USER_CHARGE


@<TRIPOS>ATOM
      1 C1         -8.4229    1.1662    2.1042 C.3       1 <1>         0.0224
      2 O2         -7.0664    0.7476    1.9399 O.3       1 <1>        -0.4220
      3 C3         -6.8431   -0.5881    1.8179 C.ar      1 <1>        -0.0106
      4 C4         -7.9099   -1.4767    1.8502 C.ar      1 <1>        -0.0612
      5 C5         -7.6963   -2.8347    1.7281 C.ar      1 <1>        -0.0665
      6 C6         -6.4063   -3.3281    1.5705 C.ar      1 <1>        -0.0453
      7 N7         -5.9228   -4.6255    1.4280 N.am      1 <1>        -0.3049
      8 C8         -4.5850   -4.6385    1.3024 C.2       1 <1>         0.1362
      9 O9         -3.8887   -5.6280    1.1629 O.2       1 <1>        -0.4272
     10 C10        -4.1092   -3.2486    1.3623 C.2       1 <1>         0.0518
     11 C11        -2.8093   -2.8040    1.2738 C.2       1 <1>        -0.0158
     12 C12        -1.7183   -3.7633    1.0998 C.2       1 <1>        -0.0120
     13 C13        -0.3740   -3.4651    1.0018 C.2       1 <1>        -0.0450
     14 N14         0.2753   -4.6499    0.8509 N.pl3     1 <1>        -0.3520
     15 C15        -0.6581   -5.6375    0.8581 C.2       1 <1>        -0.0031
     16 N16        -1.8394   -5.1142    1.0106 N.2       1 <1>        -0.3691
     17 C17        -5.3309   -2.4304    1.5375 C.ar      1 <1>        -0.0281
     18 C18        -5.5520   -1.0627    1.6558 C.ar      1 <1>        -0.0418
     19 H19        -8.8349    0.7168    3.0077 H         1 <1>         0.0920
     20 H20        -8.4602    2.2523    2.1892 H         1 <1>         0.1210
     21 H21        -9.0081    0.8490    1.2411 H         1 <1>         0.0920
     22 H22        -8.9153   -1.1018    1.9724 H         1 <1>         0.1263
     23 H23        -8.5338   -3.5161    1.7554 H         1 <1>         0.1333
     24 H24        -6.4804   -5.4191    1.4208 H         1 <1>         0.3238
     25 H25        -2.5948   -1.7471    1.3327 H         1 <1>         0.1867
     26 H26         0.0741   -2.4830    1.0377 H         1 <1>         0.1980
     27 H27         1.2331   -4.7691    0.7549 H         1 <1>         0.3359
     28 H28        -0.4510   -6.6926    0.7572 H         1 <1>         0.2599
     29 H29        -4.7207   -0.3740    1.6245 H         1 <1>         0.1453
@<TRIPOS>BOND
     1    1    2 1
     2    1   19 1
     3    1   20 1
     4    1   21 1
     5    2    3 1
     6    3   18 ar
     7    3    4 ar
     8    4    5 ar
     9    4   22 1
    10    5    6 ar
    11    5   23 1
    12    6   17 ar
    13    6    7 1
    14    7    8 am
    15    7   24 1
    16    8    9 2
    17    8   10 1
    18   10   11 2
    19   10   17 1
    20   11   12 1
    21   11   25 1
    22   12   16 1
    23   12   13 2
    24   13   14 1
    25   13   26 1
    26   14   15 1
    27   14   27 1
    28   15   16 2
    29   15   28 1
    30   17   18 ar
    31   18   29 1
@<TRIPOS>Similarity
1.0748
@<TRIPOS>ShapeSim
0.7785
@<TRIPOS>PharmSim
0.2963
# END
# Name:		CCCCOC1=C(C=NC2=NNC=C12)C(=O)C3=C(C=C(C=C3F)C)F
# Created and modified by SHAFTS on Sun Mar 21 16:57:45 2021

# 

@<TRIPOS>MOLECULE
CCCCOC1=C(C=NC2=NNC=C12)C(=O)C3=C(C=C(C=C3F)C)F
   42    44     0
SMALL
USER_CHARGE


@<TRIPOS>ATOM
      1 C1         -9.3634   -8.0090   -1.0591 C.3       1 <1>        -0.0699
      2 C2         -8.7608   -6.6054   -1.1467 C.3       1 <1>        -0.0677
      3 C3         -8.3849   -6.1233    0.2559 C.3       1 <1>        -0.0380
      4 C4         -7.7824   -4.7196    0.1683 C.3       1 <1>         0.0222
      5 O5         -7.4313   -4.2694    1.4783 O.3       1 <1>        -0.3916
      6 C6         -6.8821   -3.0385    1.5774 C.ar      1 <1>         0.0546
      7 C7         -5.4958   -2.8552    1.4957 C.ar      1 <1>         0.0939
      8 C8         -4.6117   -4.0129    1.2991 C.2       1 <1>         0.1348
      9 O9         -5.0730   -5.1391    1.3068 O.2       1 <1>        -0.4282
     10 C10        -3.1647   -3.8097    1.0927 C.ar      1 <1>         0.1069
     11 C11        -2.6677   -3.5390   -0.1872 C.ar      1 <1>         0.1047
     12 F12        -3.5115   -3.4628   -1.2395 F         1 <1>        -0.2455
     13 C13        -1.3112   -3.3496   -0.3715 C.ar      1 <1>        -0.0318
     14 C14        -0.4456   -3.4267    0.7046 C.ar      1 <1>        -0.0884
     15 C15         1.0320   -3.2187    0.4938 C.3       1 <1>        -0.0292
     16 C16        -0.9282   -3.6934    1.9732 C.ar      1 <1>        -0.0318
     17 C17        -2.2823   -3.8807    2.1765 C.ar      1 <1>         0.1047
     18 F18        -2.7518   -4.1407    3.4163 F         1 <1>        -0.2455
     19 C19        -4.9496   -1.5627    1.6015 C.ar      1 <1>         0.0197
     20 N20        -5.6894   -0.5019    1.7759 N.ar      1 <1>        -0.3419
     21 C21        -7.0304   -0.5793    1.8662 C.ar      1 <1>         0.0580
     22 N22        -7.9901    0.3085    2.0378 N.2       1 <1>        -0.3022
     23 N23        -9.2249   -0.3485    2.0549 N.pl3     1 <1>        -0.2865
     24 C24        -9.0449   -1.6646    1.8926 C.2       1 <1>        -0.0008
     25 C25        -7.6876   -1.8914    1.7609 C.ar      1 <1>         0.0503
     26 H26        -8.6332   -8.6913   -0.6239 H         1 <1>         0.0348
     27 H27       -10.2550   -7.9831   -0.4326 H         1 <1>         0.0348
     28 H28        -9.6312   -8.3524   -2.0583 H         1 <1>         0.0348
     29 H29        -7.8692   -6.6312   -1.7731 H         1 <1>         0.0455
     30 H30        -9.4909   -5.9230   -1.5819 H         1 <1>         0.0384
     31 H31        -9.2766   -6.0975    0.8824 H         1 <1>         0.0554
     32 H32        -7.6548   -6.8056    0.6911 H         1 <1>         0.0625
     33 H33        -6.8907   -4.7455   -0.4581 H         1 <1>         0.0994
     34 H34        -8.5125   -4.0374   -0.2669 H         1 <1>         0.0994
     35 H35        -0.9258   -3.1410   -1.3586 H         1 <1>         0.1432
     36 H36         1.2703   -2.1615    0.6101 H         1 <1>         0.0733
     37 H37         1.5892   -3.7997    1.2287 H         1 <1>         0.0661
     38 H38         1.3053   -3.5445   -0.5099 H         1 <1>         0.0661
     39 H39        -0.2453   -3.7515    2.8079 H         1 <1>         0.1432
     40 H40        -3.8781   -1.4442    1.5361 H         1 <1>         0.2466
     41 H41       -10.0849    0.0858    2.1681 H         1 <1>         0.4031
     42 H42        -9.8212   -2.4148    1.8658 H         1 <1>         0.2425
@<TRIPOS>BOND
     1    1    2 1
     2    1   26 1
     3    1   27 1
     4    1   28 1
     5    2    3 1
     6    2   29 1
     7    2   30 1
     8    3    4 1
     9    3   31 1
    10    3   32 1
    11    4    5 1
    12    4   33 1
    13    4   34 1
    14    5    6 1
    15    6   25 ar
    16    6    7 ar
    17    7    8 1
    18    7   19 ar
    19    8    9 2
    20    8   10 1
    21   10   17 ar
    22   10   11 ar
    23   11   12 1
    24   11   13 ar
    25   13   14 ar
    26   13   35 1
    27   14   15 1
    28   14   16 ar
    29   15   36 1
    30   15   37 1
    31   15   38 1
    32   16   17 ar
    33   16   39 1
    34   17   18 1
    35   19   20 ar
    36   19   40 1
    37   20   21 ar
    38   21   25 ar
    39   21   22 2
    40   22   23 1
    41   23   24 1
    42   23   41 1
    43   24   25 2
    44   24   42 1
@<TRIPOS>Similarity
1.0742
@<TRIPOS>ShapeSim
0.7165
@<TRIPOS>PharmSim
0.3577
# END
# Name:		CCCCOC1=C(C=NC2=NNC=C12)C(=O)C3=C(C=C(C=C3F)C)F
# Created and modified by SHAFTS on Sun Mar 21 16:57:45 2021

# 

@<TRIPOS>MOLECULE
CCCCOC1=C(C=NC2=NNC=C12)C(=O)C3=C(C=C(C=C3F)C)F
   42    44     0
SMALL
USER_CHARGE


@<TRIPOS>ATOM
      1 C1         -9.3634   -8.0090   -1.0591 C.3       1 <1>        -0.0699
      2 C2         -8.7608   -6.6054   -1.1467 C.3       1 <1>        -0.0677
      3 C3         -8.3849   -6.1233    0.2559 C.3       1 <1>        -0.0380
      4 C4         -7.7824   -4.7196    0.1683 C.3       1 <1>         0.0222
      5 O5         -7.4313   -4.2694    1.4783 O.3       1 <1>        -0.3916
      6 C6         -6.8821   -3.0385    1.5774 C.ar      1 <1>         0.0546
      7 C7         -5.4958   -2.8552    1.4957 C.ar      1 <1>         0.0939
      8 C8         -4.6117   -4.0129    1.2991 C.2       1 <1>         0.1348
      9 O9         -5.0730   -5.1391    1.3068 O.2       1 <1>        -0.4282
     10 C10        -3.1647   -3.8097    1.0927 C.ar      1 <1>         0.1069
     11 C11        -2.6677   -3.5390   -0.1872 C.ar      1 <1>         0.1047
     12 F12        -3.5115   -3.4628   -1.2395 F         1 <1>        -0.2455
     13 C13        -1.3112   -3.3496   -0.3715 C.ar      1 <1>        -0.0318
     14 C14        -0.4456   -3.4267    0.7046 C.ar      1 <1>        -0.0884
     15 C15         1.0320   -3.2187    0.4938 C.3       1 <1>        -0.0292
     16 C16        -0.9282   -3.6934    1.9732 C.ar      1 <1>        -0.0318
     17 C17        -2.2823   -3.8807    2.1765 C.ar      1 <1>         0.1047
     18 F18        -2.7518   -4.1407    3.4163 F         1 <1>        -0.2455
     19 C19        -4.9496   -1.5627    1.6015 C.ar      1 <1>         0.0197
     20 N20        -5.6894   -0.5019    1.7759 N.ar      1 <1>        -0.3419
     21 C21        -7.0304   -0.5793    1.8662 C.ar      1 <1>         0.0580
     22 N22        -7.9901    0.3085    2.0378 N.2       1 <1>        -0.3022
     23 N23        -9.2249   -0.3485    2.0549 N.pl3     1 <1>        -0.2865
     24 C24        -9.0449   -1.6646    1.8926 C.2       1 <1>        -0.0008
     25 C25        -7.6876   -1.8914    1.7609 C.ar      1 <1>         0.0503
     26 H26        -8.6332   -8.6913   -0.6239 H         1 <1>         0.0348
     27 H27       -10.2550   -7.9831   -0.4326 H         1 <1>         0.0348
     28 H28        -9.6312   -8.3524   -2.0583 H         1 <1>         0.0348
     29 H29        -7.8692   -6.6312   -1.7731 H         1 <1>         0.0455
     30 H30        -9.4909   -5.9230   -1.5819 H         1 <1>         0.0384
     31 H31        -9.2766   -6.0975    0.8824 H         1 <1>         0.0554
     32 H32        -7.6548   -6.8056    0.6911 H         1 <1>         0.0625
     33 H33        -6.8907   -4.7455   -0.4581 H         1 <1>         0.0994
     34 H34        -8.5125   -4.0374   -0.2669 H         1 <1>         0.0994
     35 H35        -0.9258   -3.1410   -1.3586 H         1 <1>         0.1432
     36 H36         1.2703   -2.1615    0.6101 H         1 <1>         0.0733
     37 H37         1.5892   -3.7997    1.2287 H         1 <1>         0.0661
     38 H38         1.3053   -3.5445   -0.5099 H         1 <1>         0.0661
     39 H39        -0.2453   -3.7515    2.8079 H         1 <1>         0.1432
     40 H40        -3.8781   -1.4442    1.5361 H         1 <1>         0.2466
     41 H41       -10.0849    0.0858    2.1681 H         1 <1>         0.4031
     42 H42        -9.8212   -2.4148    1.8658 H         1 <1>         0.2425
@<TRIPOS>BOND
     1    1    2 1
     2    1   26 1
     3    1   27 1
     4    1   28 1
     5    2    3 1
     6    2   29 1
     7    2   30 1
     8    3    4 1
     9    3   31 1
    10    3   32 1
    11    4    5 1
    12    4   33 1
    13    4   34 1
    14    5    6 1
    15    6   25 ar
    16    6    7 ar
    17    7    8 1
    18    7   19 ar
    19    8    9 2
    20    8   10 1
    21   10   17 ar
    22   10   11 ar
    23   11   12 1
    24   11   13 ar
    25   13   14 ar
    26   13   35 1
    27   14   15 1
    28   14   16 ar
    29   15   36 1
    30   15   37 1
    31   15   38 1
    32   16   17 ar
    33   16   39 1
    34   17   18 1
    35   19   20 ar
    36   19   40 1
    37   20   21 ar
    38   21   25 ar
    39   21   22 2
    40   22   23 1
    41   23   24 1
    42   23   41 1
    43   24   25 2
    44   24   42 1
@<TRIPOS>Similarity
1.0742
@<TRIPOS>ShapeSim
0.7165
@<TRIPOS>PharmSim
0.3577
# END
# Name:		CCCCOC1=C2C(NN=C2)=NC=C1C(C3=C(F)C=C(C)C=C3F)=O
# Created and modified by SHAFTS on Sun Mar 21 16:57:45 2021

# 

@<TRIPOS>MOLECULE
CCCCOC1=C2C(NN=C2)=NC=C1C(C3=C(F)C=C(C)C=C3F)=O
   42    44     0
SMALL
USER_CHARGE


@<TRIPOS>ATOM
      1 C1         -9.3634   -8.0090   -1.0591 C.3       1 <1>        -0.0699
      2 C2         -8.7608   -6.6054   -1.1467 C.3       1 <1>        -0.0677
      3 C3         -8.3849   -6.1233    0.2559 C.3       1 <1>        -0.0380
      4 C4         -7.7824   -4.7196    0.1683 C.3       1 <1>         0.0222
      5 O5         -7.4313   -4.2694    1.4783 O.3       1 <1>        -0.3916
      6 C6         -6.8821   -3.0385    1.5774 C.ar      1 <1>         0.0546
      7 C7         -5.4958   -2.8552    1.4957 C.ar      1 <1>         0.0939
      8 C8         -4.6117   -4.0129    1.2991 C.2       1 <1>         0.1348
      9 O9         -5.0730   -5.1391    1.3068 O.2       1 <1>        -0.4282
     10 C10        -3.1647   -3.8097    1.0927 C.ar      1 <1>         0.1069
     11 C11        -2.6677   -3.5390   -0.1872 C.ar      1 <1>         0.1047
     12 F12        -3.5115   -3.4628   -1.2395 F         1 <1>        -0.2455
     13 C13        -1.3112   -3.3496   -0.3715 C.ar      1 <1>        -0.0318
     14 C14        -0.4456   -3.4267    0.7046 C.ar      1 <1>        -0.0884
     15 C15         1.0320   -3.2187    0.4938 C.3       1 <1>        -0.0292
     16 C16        -0.9282   -3.6934    1.9732 C.ar      1 <1>        -0.0318
     17 C17        -2.2823   -3.8807    2.1765 C.ar      1 <1>         0.1047
     18 F18        -2.7518   -4.1407    3.4163 F         1 <1>        -0.2455
     19 C19        -4.9496   -1.5627    1.6015 C.ar      1 <1>         0.0197
     20 N20        -5.6894   -0.5019    1.7759 N.ar      1 <1>        -0.3419
     21 C21        -7.0304   -0.5793    1.8662 C.ar      1 <1>         0.0580
     22 N22        -7.9901    0.3085    2.0378 N.2       1 <1>        -0.3022
     23 N23        -9.2249   -0.3485    2.0549 N.pl3     1 <1>        -0.2865
     24 C24        -9.0449   -1.6646    1.8926 C.2       1 <1>        -0.0008
     25 C25        -7.6876   -1.8914    1.7609 C.ar      1 <1>         0.0503
     26 H26        -8.6332   -8.6913   -0.6239 H         1 <1>         0.0348
     27 H27       -10.2550   -7.9831   -0.4326 H         1 <1>         0.0348
     28 H28        -9.6312   -8.3524   -2.0583 H         1 <1>         0.0348
     29 H29        -7.8692   -6.6312   -1.7731 H         1 <1>         0.0455
     30 H30        -9.4909   -5.9230   -1.5819 H         1 <1>         0.0384
     31 H31        -9.2766   -6.0975    0.8824 H         1 <1>         0.0554
     32 H32        -7.6548   -6.8056    0.6911 H         1 <1>         0.0625
     33 H33        -6.8907   -4.7455   -0.4581 H         1 <1>         0.0994
     34 H34        -8.5125   -4.0374   -0.2669 H         1 <1>         0.0994
     35 H35        -0.9258   -3.1410   -1.3586 H         1 <1>         0.1432
     36 H36         1.2703   -2.1615    0.6101 H         1 <1>         0.0733
     37 H37         1.5892   -3.7997    1.2287 H         1 <1>         0.0661
     38 H38         1.3053   -3.5445   -0.5099 H         1 <1>         0.0661
     39 H39        -0.2453   -3.7515    2.8079 H         1 <1>         0.1432
     40 H40        -3.8781   -1.4442    1.5361 H         1 <1>         0.2466
     41 H41       -10.0849    0.0858    2.1681 H         1 <1>         0.4031
     42 H42        -9.8212   -2.4148    1.8658 H         1 <1>         0.2425
@<TRIPOS>BOND
     1    1    2 1
     2    1   26 1
     3    1   27 1
     4    1   28 1
     5    2    3 1
     6    2   29 1
     7    2   30 1
     8    3    4 1
     9    3   31 1
    10    3   32 1
    11    4    5 1
    12    4   33 1
    13    4   34 1
    14    5    6 1
    15    6   25 ar
    16    6    7 ar
    17    7    8 1
    18    7   19 ar
    19    8    9 2
    20    8   10 1
    21   10   17 ar
    22   10   11 ar
    23   11   12 1
    24   11   13 ar
    25   13   14 ar
    26   13   35 1
    27   14   15 1
    28   14   16 ar
    29   15   36 1
    30   15   37 1
    31   15   38 1
    32   16   17 ar
    33   16   39 1
    34   17   18 1
    35   19   20 ar
    36   19   40 1
    37   20   21 ar
    38   21   25 ar
    39   21   22 2
    40   22   23 1
    41   23   24 1
    42   23   41 1
    43   24   25 2
    44   24   42 1
@<TRIPOS>Similarity
1.0742
@<TRIPOS>ShapeSim
0.7165
@<TRIPOS>PharmSim
0.3577
# END
# Name:		BrC1=C2C(NC(N(C)C)=N2)=C(Br)C(Br)=C1Br
# Created and modified by SHAFTS on Sun Mar 21 16:57:45 2021

# 

@<TRIPOS>MOLECULE
BrC1=C2C(NC(N(C)C)=N2)=C(Br)C(Br)=C1Br
   23    24     0
SMALL
USER_CHARGE


@<TRIPOS>ATOM
      1 C1         -4.7310   -5.1841    1.2711 C.3       1 <1>        -0.0141
      2 N2         -4.4973   -3.7408    1.3629 N.pl3     1 <1>        -0.3567
      3 C3         -3.1332   -3.2129    1.2808 C.3       1 <1>        -0.0104
      4 C4         -5.5618   -2.8789    1.5266 C.2       1 <1>         0.0587
      5 N5         -5.4679   -1.5757    1.6142 N.2       1 <1>        -0.3230
      6 C6         -6.7068   -1.0380    1.7697 C.ar      1 <1>         0.0359
      7 C7         -7.1738    0.2716    1.9107 C.ar      1 <1>         0.0518
      8 Br8        -5.9566    1.7188    1.9035 Br        1 <1>        -0.0430
      9 C9         -8.5249    0.5052    2.0545 C.ar      1 <1>         0.0345
     10 Br10       -9.1564    2.2774    2.2452 Br        1 <1>        -0.0499
     11 C11        -9.4250   -0.5515    2.0599 C.ar      1 <1>         0.0301
     12 Br12      -11.2744   -0.2097    2.2578 Br        1 <1>        -0.0507
     13 C13        -8.9781   -1.8512    1.9211 C.ar      1 <1>         0.0336
     14 Br14      -10.2125   -3.2837    1.9290 Br        1 <1>        -0.0621
     15 C15        -7.6217   -2.1032    1.7763 C.ar      1 <1>         0.0183
     16 N16        -6.8708   -3.2570    1.6153 N.pl3     1 <1>        -0.2902
     17 H17        -3.7786   -5.6991    1.1448 H         1 <1>         0.1164
     18 H18        -5.2142   -5.5328    2.1839 H         1 <1>         0.0877
     19 H19        -5.3740   -5.3945    0.4164 H         1 <1>         0.0877
     20 H20        -2.8872   -3.0021    0.2401 H         1 <1>         0.0925
     21 H21        -3.0633   -2.2946    1.8638 H         1 <1>         0.1141
     22 H22        -2.4342   -3.9492    1.6776 H         1 <1>         0.1069
     23 H23        -7.2117   -4.1642    1.5743 H         1 <1>         0.3519
@<TRIPOS>BOND
     1    1    2 1
     2    1   17 1
     3    1   18 1
     4    1   19 1
     5    2    3 1
     6    2    4 1
     7    3   20 1
     8    3   21 1
     9    3   22 1
    10    4   16 1
    11    4    5 2
    12    5    6 1
    13    6   15 ar
    14    6    7 ar
    15    7    8 1
    16    7    9 ar
    17    9   10 1
    18    9   11 ar
    19   11   12 1
    20   11   13 ar
    21   13   14 1
    22   13   15 ar
    23   15   16 1
    24   16   23 1
@<TRIPOS>Similarity
1.0741
@<TRIPOS>ShapeSim
0.6788
@<TRIPOS>PharmSim
0.3953
# END
# Name:		CN(C)C1=NC2=C(N1)C(=C(C(=C2Br)Br)Br)Br
# Created and modified by SHAFTS on Sun Mar 21 16:57:45 2021

# 

@<TRIPOS>MOLECULE
CN(C)C1=NC2=C(N1)C(=C(C(=C2Br)Br)Br)Br
   23    24     0
SMALL
USER_CHARGE


@<TRIPOS>ATOM
      1 C1         -4.7310   -5.1841    1.2711 C.3       1 <1>        -0.0141
      2 N2         -4.4973   -3.7408    1.3629 N.pl3     1 <1>        -0.3567
      3 C3         -3.1332   -3.2129    1.2808 C.3       1 <1>        -0.0104
      4 C4         -5.5618   -2.8789    1.5266 C.2       1 <1>         0.0587
      5 N5         -5.4679   -1.5757    1.6142 N.2       1 <1>        -0.3230
      6 C6         -6.7068   -1.0380    1.7697 C.ar      1 <1>         0.0359
      7 C7         -7.1738    0.2716    1.9107 C.ar      1 <1>         0.0518
      8 Br8        -5.9566    1.7188    1.9035 Br        1 <1>        -0.0430
      9 C9         -8.5249    0.5052    2.0545 C.ar      1 <1>         0.0345
     10 Br10       -9.1564    2.2774    2.2452 Br        1 <1>        -0.0499
     11 C11        -9.4250   -0.5515    2.0599 C.ar      1 <1>         0.0301
     12 Br12      -11.2744   -0.2097    2.2578 Br        1 <1>        -0.0507
     13 C13        -8.9781   -1.8512    1.9211 C.ar      1 <1>         0.0336
     14 Br14      -10.2125   -3.2837    1.9290 Br        1 <1>        -0.0621
     15 C15        -7.6217   -2.1032    1.7763 C.ar      1 <1>         0.0183
     16 N16        -6.8708   -3.2570    1.6153 N.pl3     1 <1>        -0.2902
     17 H17        -3.7786   -5.6991    1.1448 H         1 <1>         0.1164
     18 H18        -5.2142   -5.5328    2.1839 H         1 <1>         0.0877
     19 H19        -5.3740   -5.3945    0.4164 H         1 <1>         0.0877
     20 H20        -2.8872   -3.0021    0.2401 H         1 <1>         0.0925
     21 H21        -3.0633   -2.2946    1.8638 H         1 <1>         0.1141
     22 H22        -2.4342   -3.9492    1.6776 H         1 <1>         0.1069
     23 H23        -7.2117   -4.1642    1.5743 H         1 <1>         0.3519
@<TRIPOS>BOND
     1    1    2 1
     2    1   17 1
     3    1   18 1
     4    1   19 1
     5    2    3 1
     6    2    4 1
     7    3   20 1
     8    3   21 1
     9    3   22 1
    10    4   16 1
    11    4    5 2
    12    5    6 1
    13    6   15 ar
    14    6    7 ar
    15    7    8 1
    16    7    9 ar
    17    9   10 1
    18    9   11 ar
    19   11   12 1
    20   11   13 ar
    21   13   14 1
    22   13   15 ar
    23   15   16 1
    24   16   23 1
@<TRIPOS>Similarity
1.0741
@<TRIPOS>ShapeSim
0.6788
@<TRIPOS>PharmSim
0.3953
# END
# Name:		BrC1=C2C(NC(N(C)C)=N2)=C(Br)C(Br)=C1Br
# Created and modified by SHAFTS on Sun Mar 21 16:57:45 2021

# 

@<TRIPOS>MOLECULE
BrC1=C2C(NC(N(C)C)=N2)=C(Br)C(Br)=C1Br
   23    24     0
SMALL
USER_CHARGE


@<TRIPOS>ATOM
      1 C1         -4.7310   -5.1841    1.2711 C.3       1 <1>        -0.0141
      2 N2         -4.4973   -3.7408    1.3629 N.pl3     1 <1>        -0.3567
      3 C3         -3.1332   -3.2129    1.2808 C.3       1 <1>        -0.0104
      4 C4         -5.5618   -2.8789    1.5266 C.2       1 <1>         0.0587
      5 N5         -5.4679   -1.5757    1.6142 N.2       1 <1>        -0.3230
      6 C6         -6.7068   -1.0380    1.7697 C.ar      1 <1>         0.0359
      7 C7         -7.1738    0.2716    1.9107 C.ar      1 <1>         0.0518
      8 Br8        -5.9566    1.7188    1.9035 Br        1 <1>        -0.0430
      9 C9         -8.5249    0.5052    2.0545 C.ar      1 <1>         0.0345
     10 Br10       -9.1564    2.2774    2.2452 Br        1 <1>        -0.0499
     11 C11        -9.4250   -0.5515    2.0599 C.ar      1 <1>         0.0301
     12 Br12      -11.2744   -0.2097    2.2578 Br        1 <1>        -0.0507
     13 C13        -8.9781   -1.8512    1.9211 C.ar      1 <1>         0.0336
     14 Br14      -10.2125   -3.2837    1.9290 Br        1 <1>        -0.0621
     15 C15        -7.6217   -2.1032    1.7763 C.ar      1 <1>         0.0183
     16 N16        -6.8708   -3.2570    1.6153 N.pl3     1 <1>        -0.2902
     17 H17        -3.7786   -5.6991    1.1448 H         1 <1>         0.1164
     18 H18        -5.2142   -5.5328    2.1839 H         1 <1>         0.0877
     19 H19        -5.3740   -5.3945    0.4164 H         1 <1>         0.0877
     20 H20        -2.8872   -3.0021    0.2401 H         1 <1>         0.0925
     21 H21        -3.0633   -2.2946    1.8638 H         1 <1>         0.1141
     22 H22        -2.4342   -3.9492    1.6776 H         1 <1>         0.1069
     23 H23        -7.2117   -4.1642    1.5743 H         1 <1>         0.3519
@<TRIPOS>BOND
     1    1    2 1
     2    1   17 1
     3    1   18 1
     4    1   19 1
     5    2    3 1
     6    2    4 1
     7    3   20 1
     8    3   21 1
     9    3   22 1
    10    4   16 1
    11    4    5 2
    12    5    6 1
    13    6   15 ar
    14    6    7 ar
    15    7    8 1
    16    7    9 ar
    17    9   10 1
    18    9   11 ar
    19   11   12 1
    20   11   13 ar
    21   13   14 1
    22   13   15 ar
    23   15   16 1
    24   16   23 1
@<TRIPOS>Similarity
1.0741
@<TRIPOS>ShapeSim
0.6788
@<TRIPOS>PharmSim
0.3953
# END
# Name:		BrC1=C2C(NC(N(C)C)=N2)=C(Br)C(Br)=C1Br
# Created and modified by SHAFTS on Sun Mar 21 16:57:45 2021

# 

@<TRIPOS>MOLECULE
BrC1=C2C(NC(N(C)C)=N2)=C(Br)C(Br)=C1Br
   23    24     0
SMALL
USER_CHARGE


@<TRIPOS>ATOM
      1 C1         -4.7310   -5.1841    1.2711 C.3       1 <1>        -0.0141
      2 N2         -4.4973   -3.7408    1.3629 N.pl3     1 <1>        -0.3567
      3 C3         -3.1332   -3.2129    1.2808 C.3       1 <1>        -0.0104
      4 C4         -5.5618   -2.8789    1.5266 C.2       1 <1>         0.0587
      5 N5         -5.4679   -1.5757    1.6142 N.2       1 <1>        -0.3230
      6 C6         -6.7068   -1.0380    1.7697 C.ar      1 <1>         0.0359
      7 C7         -7.1738    0.2716    1.9107 C.ar      1 <1>         0.0518
      8 Br8        -5.9566    1.7188    1.9035 Br        1 <1>        -0.0430
      9 C9         -8.5249    0.5052    2.0545 C.ar      1 <1>         0.0345
     10 Br10       -9.1564    2.2774    2.2452 Br        1 <1>        -0.0499
     11 C11        -9.4250   -0.5515    2.0599 C.ar      1 <1>         0.0301
     12 Br12      -11.2744   -0.2097    2.2578 Br        1 <1>        -0.0507
     13 C13        -8.9781   -1.8512    1.9211 C.ar      1 <1>         0.0336
     14 Br14      -10.2125   -3.2837    1.9290 Br        1 <1>        -0.0621
     15 C15        -7.6217   -2.1032    1.7763 C.ar      1 <1>         0.0183
     16 N16        -6.8708   -3.2570    1.6153 N.pl3     1 <1>        -0.2902
     17 H17        -3.7786   -5.6991    1.1448 H         1 <1>         0.1164
     18 H18        -5.2142   -5.5328    2.1839 H         1 <1>         0.0877
     19 H19        -5.3740   -5.3945    0.4164 H         1 <1>         0.0877
     20 H20        -2.8872   -3.0021    0.2401 H         1 <1>         0.0925
     21 H21        -3.0633   -2.2946    1.8638 H         1 <1>         0.1141
     22 H22        -2.4342   -3.9492    1.6776 H         1 <1>         0.1069
     23 H23        -7.2117   -4.1642    1.5743 H         1 <1>         0.3519
@<TRIPOS>BOND
     1    1    2 1
     2    1   17 1
     3    1   18 1
     4    1   19 1
     5    2    3 1
     6    2    4 1
     7    3   20 1
     8    3   21 1
     9    3   22 1
    10    4   16 1
    11    4    5 2
    12    5    6 1
    13    6   15 ar
    14    6    7 ar
    15    7    8 1
    16    7    9 ar
    17    9   10 1
    18    9   11 ar
    19   11   12 1
    20   11   13 ar
    21   13   14 1
    22   13   15 ar
    23   15   16 1
    24   16   23 1
@<TRIPOS>Similarity
1.0741
@<TRIPOS>ShapeSim
0.6788
@<TRIPOS>PharmSim
0.3953
# END
# Name:		O=C(O)CCC(C(C=C3)=CC1=C3SC2=C1C=CC=C2)=O
# Created and modified by SHAFTS on Sun Mar 21 16:57:45 2021

# 

@<TRIPOS>MOLECULE
O=C(O)CCC(C(C=C3)=CC1=C3SC2=C1C=CC=C2)=O
   31    33     0
SMALL
USER_CHARGE


@<TRIPOS>ATOM
      1 O1         -0.4388   -4.0706    0.9785 O.co2     1 <1>        -0.5000
      2 C2         -0.9545   -5.1747    0.9385 C.2       1 <1>         0.4900
      3 O3         -0.2595   -6.1675    0.8049 O.co2     1 <1>        -0.5000
      4 C4         -2.4501   -5.3128    1.0605 C.3       1 <1>        -0.1700
      5 C5         -3.0786   -3.9274    1.2239 C.3       1 <1>        -0.1400
      6 C6         -4.5742   -4.0654    1.3458 C.2       1 <1>         0.3900
      7 O7         -5.0872   -5.1639    1.3062 O.2       1 <1>        -0.4600
      8 C8         -5.4106   -2.8702    1.5128 C.ar      1 <1>        -0.1600
      9 C9         -6.7921   -2.9961    1.6315 C.ar      1 <1>        -0.0200
     10 C10        -7.5909   -1.8538    1.7905 C.ar      1 <1>        -0.0800
     11 C11        -6.9887   -0.6005    1.8285 C.ar      1 <1>        -0.1000
     12 C12        -5.5932   -0.4908    1.7074 C.ar      1 <1>        -0.1000
     13 C13        -4.8188   -1.5980    1.5591 C.ar      1 <1>        -0.0500
     14 S14        -8.1954    0.6598    2.0340 S.3       1 <1>         0.0900
     15 C15        -9.5246   -0.4875    2.0711 C.ar      1 <1>        -0.1300
     16 C16        -9.0579   -1.7860    1.9311 C.ar      1 <1>        -0.0500
     17 C17        -9.9775   -2.8523    1.9368 C.ar      1 <1>        -0.0800
     18 C18       -11.3217   -2.6091    2.0791 C.ar      1 <1>        -0.1200
     19 C19       -11.7844   -1.3096    2.2188 C.ar      1 <1>        -0.1000
     20 C20       -10.8992   -0.2574    2.2147 C.ar      1 <1>        -0.0800
     21 H21        -2.8457   -5.7876    0.1627 H         1 <1>         0.0600
     22 H22        -2.6888   -5.9248    1.9304 H         1 <1>         0.0600
     23 H23        -2.6830   -3.4526    2.1218 H         1 <1>         0.1000
     24 H24        -2.8399   -3.3153    0.3540 H         1 <1>         0.1000
     25 H25        -7.2493   -3.9740    1.6007 H         1 <1>         0.1400
     26 H26        -5.1300    0.4843    1.7371 H         1 <1>         0.1400
     27 H27        -3.7474   -1.4982    1.4676 H         1 <1>         0.1500
     28 H28        -9.6238   -3.8670    1.8285 H         1 <1>         0.1300
     29 H29       -12.0205   -3.4326    2.0817 H         1 <1>         0.1300
     30 H30       -12.8424   -1.1233    2.3303 H         1 <1>         0.1300
     31 H31       -11.2656    0.7527    2.3243 H         1 <1>         0.1300
@<TRIPOS>BOND
     1    1    2 ar
     2    2    3 ar
     3    2    4 1
     4    4    5 1
     5    4   21 1
     6    4   22 1
     7    5    6 1
     8    5   23 1
     9    5   24 1
    10    6    7 2
    11    6    8 1
    12    8   13 ar
    13    8    9 ar
    14    9   10 ar
    15    9   25 1
    16   10   16 1
    17   10   11 ar
    18   11   12 ar
    19   11   14 1
    20   12   13 ar
    21   12   26 1
    22   13   27 1
    23   14   15 1
    24   15   20 ar
    25   15   16 ar
    26   16   17 ar
    27   17   18 ar
    28   17   28 1
    29   18   19 ar
    30   18   29 1
    31   19   20 ar
    32   19   30 1
    33   20   31 1
@<TRIPOS>Similarity
1.0733
@<TRIPOS>ShapeSim
0.7092
@<TRIPOS>PharmSim
0.3641
# END
# Name:		OC1=CC(C2=NC3=C(OC4=C3C=CC=N4)C(N5CCOCC5)=N2)=CC=C1
# Created and modified by SHAFTS on Sun Mar 21 16:57:45 2021

# 

@<TRIPOS>MOLECULE
OC1=CC(C2=NC3=C(OC4=C3C=CC=N4)C(N5CCOCC5)=N2)=CC=C1
   42    46     0
SMALL
USER_CHARGE


@<TRIPOS>ATOM
      1 O1         -9.5999   -8.9125    1.3890 O.3       1 <1>        -0.4394
      2 C2         -8.2969   -8.5342    1.3094 C.ar      1 <1>        -0.0294
      3 C3         -7.3050   -9.4917    1.1498 C.ar      1 <1>        -0.0651
      4 C4         -5.9782   -9.1114    1.0685 C.ar      1 <1>        -0.0844
      5 C5         -5.6327   -7.7775    1.1450 C.ar      1 <1>        -0.0596
      6 C6         -6.6229   -6.8093    1.3049 C.ar      1 <1>         0.0159
      7 C7         -6.2543   -5.3748    1.3869 C.ar      1 <1>         0.0586
      8 N8         -7.2111   -4.4729    1.5442 N.ar      1 <1>        -0.3390
      9 C9         -6.9134   -3.1797    1.6213 C.ar      1 <1>         0.0406
     10 C10        -5.5762   -2.7726    1.5350 C.ar      1 <1>         0.1098
     11 O11        -5.5254   -1.4285    1.6377 O.3       1 <1>        -0.2963
     12 C12        -6.7567   -0.8959    1.7895 C.ar      1 <1>         0.1069
     13 C13        -7.6927   -1.9427    1.7891 C.ar      1 <1>         0.0369
     14 C14        -9.0481   -1.6560    1.9319 C.ar      1 <1>        -0.0557
     15 C15        -9.4240   -0.3312    2.0705 C.ar      1 <1>        -0.0497
     16 C16        -8.4491    0.6523    2.0624 C.ar      1 <1>        -0.0158
     17 N17        -7.1738    0.3558    1.9263 N.ar      1 <1>        -0.3428
     18 C18        -4.5974   -3.7611    1.3689 C.ar      1 <1>        -0.0783
     19 N19        -3.2571   -3.4177    1.2772 N.3       1 <1>         0.3980
     20 C20        -3.0317   -2.4623    0.1828 C.3       1 <1>        -0.1232
     21 C21        -1.5532   -2.0655    0.1555 C.3       1 <1>        -0.0076
     22 O22        -0.7515   -3.2420    0.0208 O.3       1 <1>        -0.4611
     23 C23        -0.9453   -4.1940    1.0704 C.3       1 <1>        -0.0087
     24 C24        -2.4175   -4.6124    1.1069 C.3       1 <1>        -0.1218
     25 N25        -4.9741   -5.0322    1.3061 N.ar      1 <1>        -0.3472
     26 C26        -7.9597   -7.1924    1.3820 C.ar      1 <1>        -0.0264
     27 H27       -10.0497   -8.9562    0.5340 H         1 <1>         0.3537
     28 H28        -7.5702  -10.5368    1.0894 H         1 <1>         0.1299
     29 H29        -5.2101   -9.8605    0.9450 H         1 <1>         0.1321
     30 H30        -4.5953   -7.4837    1.0815 H         1 <1>         0.1433
     31 H31        -9.7852   -2.4453    1.9340 H         1 <1>         0.1653
     32 H32       -10.4652   -0.0675    2.1834 H         1 <1>         0.1405
     33 H33        -8.7419    1.6863    2.1706 H         1 <1>         0.2334
     34 H34        -3.3018   -2.9257   -0.7662 H         1 <1>         0.0434
     35 H35        -3.6439   -1.5748    0.3425 H         1 <1>         0.0721
     36 H36        -1.3702   -1.4016   -0.6895 H         1 <1>         0.1333
     37 H37        -1.2965   -1.5541    1.0832 H         1 <1>         0.1043
     38 H38        -0.3225   -5.0696    0.8871 H         1 <1>         0.1312
     39 H39        -0.6708   -3.7446    2.0247 H         1 <1>         0.0950
     40 H40        -2.5815   -5.2944    1.9413 H         1 <1>         0.0742
     41 H41        -2.6778   -5.1101    0.1728 H         1 <1>         0.0527
     42 H42        -8.7305   -6.4463    1.5058 H         1 <1>         0.1504
@<TRIPOS>BOND
     1    1    2 1
     2    1   27 1
     3    2   26 ar
     4    2    3 ar
     5    3    4 ar
     6    3   28 1
     7    4    5 ar
     8    4   29 1
     9    5    6 ar
    10    5   30 1
    11    6    7 1
    12    6   26 ar
    13    7   25 ar
    14    7    8 ar
    15    8    9 ar
    16    9   13 1
    17    9   10 ar
    18   10   11 1
    19   10   18 ar
    20   11   12 1
    21   12   17 ar
    22   12   13 ar
    23   13   14 ar
    24   14   15 ar
    25   14   31 1
    26   15   16 ar
    27   15   32 1
    28   16   17 ar
    29   16   33 1
    30   18   19 1
    31   18   25 ar
    32   19   24 1
    33   19   20 1
    34   20   21 1
    35   20   34 1
    36   20   35 1
    37   21   22 1
    38   21   36 1
    39   21   37 1
    40   22   23 1
    41   23   24 1
    42   23   38 1
    43   23   39 1
    44   24   40 1
    45   24   41 1
    46   26   42 1
@<TRIPOS>Similarity
1.0725
@<TRIPOS>ShapeSim
0.6483
@<TRIPOS>PharmSim
0.4242
# END
# Name:		C1COCCN1C2=NC(=NC3=C2OC4=C3C=CC=N4)C5=CC(=CC=C5)O
# Created and modified by SHAFTS on Sun Mar 21 16:57:45 2021

# 

@<TRIPOS>MOLECULE
C1COCCN1C2=NC(=NC3=C2OC4=C3C=CC=N4)C5=CC(=CC=C5)O
   42    46     0
SMALL
USER_CHARGE


@<TRIPOS>ATOM
      1 O1         -9.5999   -8.9125    1.3890 O.3       1 <1>        -0.4394
      2 C2         -8.2969   -8.5342    1.3094 C.ar      1 <1>        -0.0294
      3 C3         -7.3050   -9.4917    1.1498 C.ar      1 <1>        -0.0651
      4 C4         -5.9782   -9.1114    1.0685 C.ar      1 <1>        -0.0844
      5 C5         -5.6327   -7.7775    1.1450 C.ar      1 <1>        -0.0596
      6 C6         -6.6229   -6.8093    1.3049 C.ar      1 <1>         0.0159
      7 C7         -6.2543   -5.3748    1.3869 C.ar      1 <1>         0.0586
      8 N8         -7.2111   -4.4729    1.5442 N.ar      1 <1>        -0.3390
      9 C9         -6.9134   -3.1797    1.6213 C.ar      1 <1>         0.0406
     10 C10        -5.5762   -2.7726    1.5350 C.ar      1 <1>         0.1098
     11 O11        -5.5254   -1.4285    1.6377 O.3       1 <1>        -0.2963
     12 C12        -6.7567   -0.8959    1.7895 C.ar      1 <1>         0.1069
     13 C13        -7.6927   -1.9427    1.7891 C.ar      1 <1>         0.0369
     14 C14        -9.0481   -1.6560    1.9319 C.ar      1 <1>        -0.0557
     15 C15        -9.4240   -0.3312    2.0705 C.ar      1 <1>        -0.0497
     16 C16        -8.4491    0.6523    2.0624 C.ar      1 <1>        -0.0158
     17 N17        -7.1738    0.3558    1.9263 N.ar      1 <1>        -0.3428
     18 C18        -4.5974   -3.7611    1.3689 C.ar      1 <1>        -0.0783
     19 N19        -3.2571   -3.4177    1.2772 N.3       1 <1>         0.3980
     20 C20        -3.0317   -2.4623    0.1828 C.3       1 <1>        -0.1232
     21 C21        -1.5532   -2.0655    0.1555 C.3       1 <1>        -0.0076
     22 O22        -0.7515   -3.2420    0.0208 O.3       1 <1>        -0.4611
     23 C23        -0.9453   -4.1940    1.0704 C.3       1 <1>        -0.0087
     24 C24        -2.4175   -4.6124    1.1069 C.3       1 <1>        -0.1218
     25 N25        -4.9741   -5.0322    1.3061 N.ar      1 <1>        -0.3472
     26 C26        -7.9597   -7.1924    1.3820 C.ar      1 <1>        -0.0264
     27 H27       -10.0497   -8.9562    0.5340 H         1 <1>         0.3537
     28 H28        -7.5702  -10.5368    1.0894 H         1 <1>         0.1299
     29 H29        -5.2101   -9.8605    0.9450 H         1 <1>         0.1321
     30 H30        -4.5953   -7.4837    1.0815 H         1 <1>         0.1433
     31 H31        -9.7852   -2.4453    1.9340 H         1 <1>         0.1653
     32 H32       -10.4652   -0.0675    2.1834 H         1 <1>         0.1405
     33 H33        -8.7419    1.6863    2.1706 H         1 <1>         0.2334
     34 H34        -3.3018   -2.9257   -0.7662 H         1 <1>         0.0434
     35 H35        -3.6439   -1.5748    0.3425 H         1 <1>         0.0721
     36 H36        -1.3702   -1.4016   -0.6895 H         1 <1>         0.1333
     37 H37        -1.2965   -1.5541    1.0832 H         1 <1>         0.1043
     38 H38        -0.3225   -5.0696    0.8871 H         1 <1>         0.1312
     39 H39        -0.6708   -3.7446    2.0247 H         1 <1>         0.0950
     40 H40        -2.5815   -5.2944    1.9413 H         1 <1>         0.0742
     41 H41        -2.6778   -5.1101    0.1728 H         1 <1>         0.0527
     42 H42        -8.7305   -6.4463    1.5058 H         1 <1>         0.1504
@<TRIPOS>BOND
     1    1    2 1
     2    1   27 1
     3    2   26 ar
     4    2    3 ar
     5    3    4 ar
     6    3   28 1
     7    4    5 ar
     8    4   29 1
     9    5    6 ar
    10    5   30 1
    11    6    7 1
    12    6   26 ar
    13    7   25 ar
    14    7    8 ar
    15    8    9 ar
    16    9   13 1
    17    9   10 ar
    18   10   11 1
    19   10   18 ar
    20   11   12 1
    21   12   17 ar
    22   12   13 ar
    23   13   14 ar
    24   14   15 ar
    25   14   31 1
    26   15   16 ar
    27   15   32 1
    28   16   17 ar
    29   16   33 1
    30   18   19 1
    31   18   25 ar
    32   19   24 1
    33   19   20 1
    34   20   21 1
    35   20   34 1
    36   20   35 1
    37   21   22 1
    38   21   36 1
    39   21   37 1
    40   22   23 1
    41   23   24 1
    42   23   38 1
    43   23   39 1
    44   24   40 1
    45   24   41 1
    46   26   42 1
@<TRIPOS>Similarity
1.0725
@<TRIPOS>ShapeSim
0.6483
@<TRIPOS>PharmSim
0.4242
# END
# Name:		C1COCCN1C2=NC(=NC3=C2OC4=C3C=CC=N4)C5=CC(=CC=C5)O
# Created and modified by SHAFTS on Sun Mar 21 16:57:45 2021

# 

@<TRIPOS>MOLECULE
C1COCCN1C2=NC(=NC3=C2OC4=C3C=CC=N4)C5=CC(=CC=C5)O
   42    46     0
SMALL
USER_CHARGE


@<TRIPOS>ATOM
      1 O1         -9.5999   -8.9125    1.3890 O.3       1 <1>        -0.4394
      2 C2         -8.2969   -8.5342    1.3094 C.ar      1 <1>        -0.0294
      3 C3         -7.3050   -9.4917    1.1498 C.ar      1 <1>        -0.0651
      4 C4         -5.9782   -9.1114    1.0685 C.ar      1 <1>        -0.0844
      5 C5         -5.6327   -7.7775    1.1450 C.ar      1 <1>        -0.0596
      6 C6         -6.6229   -6.8093    1.3049 C.ar      1 <1>         0.0159
      7 C7         -6.2543   -5.3748    1.3869 C.ar      1 <1>         0.0586
      8 N8         -7.2111   -4.4729    1.5442 N.ar      1 <1>        -0.3390
      9 C9         -6.9134   -3.1797    1.6213 C.ar      1 <1>         0.0406
     10 C10        -5.5762   -2.7726    1.5350 C.ar      1 <1>         0.1098
     11 O11        -5.5254   -1.4285    1.6377 O.3       1 <1>        -0.2963
     12 C12        -6.7567   -0.8959    1.7895 C.ar      1 <1>         0.1069
     13 C13        -7.6927   -1.9427    1.7891 C.ar      1 <1>         0.0369
     14 C14        -9.0481   -1.6560    1.9319 C.ar      1 <1>        -0.0557
     15 C15        -9.4240   -0.3312    2.0705 C.ar      1 <1>        -0.0497
     16 C16        -8.4491    0.6523    2.0624 C.ar      1 <1>        -0.0158
     17 N17        -7.1738    0.3558    1.9263 N.ar      1 <1>        -0.3428
     18 C18        -4.5974   -3.7611    1.3689 C.ar      1 <1>        -0.0783
     19 N19        -3.2571   -3.4177    1.2772 N.3       1 <1>         0.3980
     20 C20        -3.0317   -2.4623    0.1828 C.3       1 <1>        -0.1232
     21 C21        -1.5532   -2.0655    0.1555 C.3       1 <1>        -0.0076
     22 O22        -0.7515   -3.2420    0.0208 O.3       1 <1>        -0.4611
     23 C23        -0.9453   -4.1940    1.0704 C.3       1 <1>        -0.0087
     24 C24        -2.4175   -4.6124    1.1069 C.3       1 <1>        -0.1218
     25 N25        -4.9741   -5.0322    1.3061 N.ar      1 <1>        -0.3472
     26 C26        -7.9597   -7.1924    1.3820 C.ar      1 <1>        -0.0264
     27 H27       -10.0497   -8.9562    0.5340 H         1 <1>         0.3537
     28 H28        -7.5702  -10.5368    1.0894 H         1 <1>         0.1299
     29 H29        -5.2101   -9.8605    0.9450 H         1 <1>         0.1321
     30 H30        -4.5953   -7.4837    1.0815 H         1 <1>         0.1433
     31 H31        -9.7852   -2.4453    1.9340 H         1 <1>         0.1653
     32 H32       -10.4652   -0.0675    2.1834 H         1 <1>         0.1405
     33 H33        -8.7419    1.6863    2.1706 H         1 <1>         0.2334
     34 H34        -3.3018   -2.9257   -0.7662 H         1 <1>         0.0434
     35 H35        -3.6439   -1.5748    0.3425 H         1 <1>         0.0721
     36 H36        -1.3702   -1.4016   -0.6895 H         1 <1>         0.1333
     37 H37        -1.2965   -1.5541    1.0832 H         1 <1>         0.1043
     38 H38        -0.3225   -5.0696    0.8871 H         1 <1>         0.1312
     39 H39        -0.6708   -3.7446    2.0247 H         1 <1>         0.0950
     40 H40        -2.5815   -5.2944    1.9413 H         1 <1>         0.0742
     41 H41        -2.6778   -5.1101    0.1728 H         1 <1>         0.0527
     42 H42        -8.7305   -6.4463    1.5058 H         1 <1>         0.1504
@<TRIPOS>BOND
     1    1    2 1
     2    1   27 1
     3    2   26 ar
     4    2    3 ar
     5    3    4 ar
     6    3   28 1
     7    4    5 ar
     8    4   29 1
     9    5    6 ar
    10    5   30 1
    11    6    7 1
    12    6   26 ar
    13    7   25 ar
    14    7    8 ar
    15    8    9 ar
    16    9   13 1
    17    9   10 ar
    18   10   11 1
    19   10   18 ar
    20   11   12 1
    21   12   17 ar
    22   12   13 ar
    23   13   14 ar
    24   14   15 ar
    25   14   31 1
    26   15   16 ar
    27   15   32 1
    28   16   17 ar
    29   16   33 1
    30   18   19 1
    31   18   25 ar
    32   19   24 1
    33   19   20 1
    34   20   21 1
    35   20   34 1
    36   20   35 1
    37   21   22 1
    38   21   36 1
    39   21   37 1
    40   22   23 1
    41   23   24 1
    42   23   38 1
    43   23   39 1
    44   24   40 1
    45   24   41 1
    46   26   42 1
@<TRIPOS>Similarity
1.0725
@<TRIPOS>ShapeSim
0.6483
@<TRIPOS>PharmSim
0.4242
# END
# Name:		FC1=CC=C(C(C2=C(N)C(C#N)=C(NCC=C)S2)=O)C=C1
# Created and modified by SHAFTS on Sun Mar 21 16:57:45 2021

# 

@<TRIPOS>MOLECULE
FC1=CC=C(C(C2=C(N)C(C#N)=C(NCC=C)S2)=O)C=C1
   33    34     0
SMALL
USER_CHARGE


@<TRIPOS>ATOM
      1 C1         -7.1274    3.5797    2.9373 C.2       1 <1>        -0.1252
      2 C2         -7.3897    2.7196    1.9846 C.2       1 <1>        -0.1184
      3 C3         -6.5669    1.4635    1.8562 C.3       1 <1>        -0.0299
      4 N4         -7.4519    0.2962    1.8747 N.pl3     1 <1>        -0.3815
      5 C5         -6.9234   -0.9690    1.7704 C.2       1 <1>         0.0576
      6 C6         -7.6675   -2.1301    1.7718 C.2       1 <1>         0.1103
      7 C7         -9.0951   -2.1422    1.8834 C.1       1 <1>         0.0483
      8 N8        -10.2276   -2.1517    1.9718 N.1       1 <1>        -0.3896
      9 C9         -6.9051   -3.2903    1.6542 C.2       1 <1>        -0.0251
     10 N10        -7.4512   -4.5642    1.6341 N.pl3     1 <1>        -0.3849
     11 C11        -5.5560   -3.0430    1.5598 C.2       1 <1>         0.0934
     12 C12        -4.5600   -4.0298    1.4317 C.2       1 <1>         0.0918
     13 O13        -4.8750   -5.1986    1.2842 O.2       1 <1>        -0.4769
     14 C14        -3.1314   -3.6488    1.4758 C.ar      1 <1>         0.0027
     15 C15        -2.7294   -2.5195    2.1913 C.ar      1 <1>        -0.0688
     16 C16        -1.3967   -2.1690    2.2296 C.ar      1 <1>        -0.0449
     17 C17        -0.4562   -2.9359    1.5593 C.ar      1 <1>         0.0660
     18 F18         0.8486   -2.5881    1.6000 F         1 <1>        -0.2627
     19 C19        -0.8500   -4.0586    0.8476 C.ar      1 <1>        -0.0418
     20 C20        -2.1797   -4.4206    0.8068 C.ar      1 <1>        -0.0647
     21 S21        -5.2607   -1.3126    1.6146 S.3       1 <1>        -0.0183
     22 H22        -7.7170    4.4800    3.0293 H         1 <1>         0.0942
     23 H23        -6.3245    3.3866    3.6333 H         1 <1>         0.0870
     24 H24        -8.1953    2.9106    1.2913 H         1 <1>         0.0984
     25 H25        -6.0142    1.4856    0.9171 H         1 <1>         0.1145
     26 H26        -5.8662    1.4014    2.6888 H         1 <1>         0.1074
     27 H27        -8.4107    0.4157    1.9604 H         1 <1>         0.3027
     28 H28        -8.4116   -4.6814    1.7042 H         1 <1>         0.2698
     29 H29        -6.8730   -5.3385    1.5498 H         1 <1>         0.2855
     30 H30        -3.4614   -1.9213    2.7137 H         1 <1>         0.1419
     31 H31        -1.0848   -1.2953    2.7826 H         1 <1>         0.1316
     32 H32        -0.1134   -4.6528    0.3273 H         1 <1>         0.1325
     33 H33        -2.4854   -5.2954    0.2522 H         1 <1>         0.1470
@<TRIPOS>BOND
     1    1    2 2
     2    1   22 1
     3    1   23 1
     4    2    3 1
     5    2   24 1
     6    3    4 1
     7    3   25 1
     8    3   26 1
     9    4    5 1
    10    4   27 1
    11    5   21 1
    12    5    6 2
    13    6    7 1
    14    6    9 1
    15    7    8 3
    16    9   10 1
    17    9   11 2
    18   10   28 1
    19   10   29 1
    20   11   12 1
    21   11   21 1
    22   12   13 2
    23   12   14 1
    24   14   20 ar
    25   14   15 ar
    26   15   16 ar
    27   15   30 1
    28   16   17 ar
    29   16   31 1
    30   17   18 1
    31   17   19 ar
    32   19   20 ar
    33   19   32 1
    34   20   33 1
@<TRIPOS>Similarity
1.0722
@<TRIPOS>ShapeSim
0.7221
@<TRIPOS>PharmSim
0.3502
# END
# Name:		COC(=O)NC1=CC=C(C=C1)C2=NC3=C(C=NN3C4CCN(CC4)C(=O)OC)C(=N2)N5CCOCC5
# Created and modified by SHAFTS on Sun Mar 21 16:57:45 2021

# 

@<TRIPOS>MOLECULE
COC(=O)NC1=CC=C(C=C1)C2=NC3=C(C=NN3C4CCN(CC4)C(=O)OC)C(=N2)N5CCOCC5
   65    69     0
SMALL
USER_CHARGE


@<TRIPOS>ATOM
      1 C1          3.4627   -3.8147    2.1265 C.3       1 <1>         0.0442
      2 O2          2.4173   -4.5330    1.4197 O.3       1 <1>        -0.3345
      3 C3          1.1710   -4.0291    1.4954 C.2       1 <1>         0.2045
      4 O4          0.9627   -3.0169    2.1346 O.2       1 <1>        -0.4538
      5 N5          0.1545   -4.6474    0.8623 N.am      1 <1>        -0.2694
      6 C6         -1.1530   -4.1809    1.0188 C.ar      1 <1>        -0.0338
      7 C7         -1.3929   -2.8173    1.1443 C.ar      1 <1>        -0.0458
      8 C8         -2.6817   -2.3545    1.2985 C.ar      1 <1>        -0.0442
      9 C9         -3.7462   -3.2557    1.3285 C.ar      1 <1>         0.0214
     10 C10        -5.1328   -2.7609    1.4937 C.ar      1 <1>         0.0560
     11 N11        -6.1282   -3.6424    1.5243 N.ar      1 <1>        -0.3653
     12 C12        -7.3870   -3.2502    1.6706 C.ar      1 <1>        -0.1229
     13 N13        -8.4149   -4.1723    1.7018 N.3       1 <1>         0.3941
     14 C14        -9.2030   -4.0410    2.9360 C.3       1 <1>        -0.1233
     15 C15       -10.3641   -5.0384    2.9022 C.3       1 <1>        -0.0088
     16 O16        -9.8456   -6.3600    2.7287 O.3       1 <1>        -0.4625
     17 C17        -9.0733   -6.5236    1.5362 C.3       1 <1>        -0.0090
     18 C18        -7.8992   -5.5412    1.5562 C.3       1 <1>        -0.1208
     19 C19        -7.6518   -1.8713    1.7938 C.ar      1 <1>         0.0360
     20 C20        -8.8209   -1.0984    1.9589 C.2       1 <1>         0.0241
     21 N21        -8.4810    0.1579    2.0166 N.2       1 <1>        -0.3113
     22 N22        -7.0909    0.2773    1.8944 N.pl3     1 <1>        -0.2839
     23 C23        -6.3318    1.5301    1.9125 C.3       1 <1>         0.0234
     24 C24        -6.7959    2.4241    0.7603 C.3       1 <1>        -0.0043
     25 C25        -5.9763    3.7183    0.7614 C.3       1 <1>         0.0006
     26 N26        -6.0785    4.3418    2.0878 N.am      1 <1>        -0.3219
     27 C27        -6.4733    5.6240    2.2154 C.2       1 <1>         0.1988
     28 O28        -6.7488    6.2761    1.2278 O.2       1 <1>        -0.4660
     29 O29        -6.5625    6.1826    3.4372 O.3       1 <1>        -0.3351
     30 C30        -6.9944    7.5675    3.4989 C.3       1 <1>         0.0399
     31 C31        -5.7425    3.5406    3.2728 C.3       1 <1>        -0.0025
     32 C32        -6.5648    2.2484    3.2435 C.3       1 <1>        -0.0085
     33 C33        -6.5657   -0.9737    1.7558 C.ar      1 <1>         0.0518
     34 N34        -5.3353   -1.4580    1.6107 N.ar      1 <1>        -0.3242
     35 C35        -3.5028   -4.6235    1.2023 C.ar      1 <1>        -0.0476
     36 C36        -2.2125   -5.0806    1.0431 C.ar      1 <1>        -0.0517
     37 H37         3.2248   -3.7802    3.1896 H         1 <1>         0.1060
     38 H38         4.4149   -4.3257    1.9836 H         1 <1>         0.1350
     39 H39         3.5332   -2.7992    1.7367 H         1 <1>         0.1060
     40 H40         0.3308   -5.4163    0.2978 H         1 <1>         0.3421
     41 H41        -0.5685   -2.1200    1.1215 H         1 <1>         0.1486
     42 H42        -2.8675   -1.2951    1.3963 H         1 <1>         0.1528
     43 H43        -8.5684   -4.2503    3.7971 H         1 <1>         0.0433
     44 H44        -9.5962   -3.0272    3.0106 H         1 <1>         0.0719
     45 H45       -10.9175   -4.9847    3.8396 H         1 <1>         0.1311
     46 H46       -11.0280   -4.7961    2.0724 H         1 <1>         0.1021
     47 H47        -8.6934   -7.5440    1.4858 H         1 <1>         0.1312
     48 H48        -9.6998   -6.3245    0.6667 H         1 <1>         0.0950
     49 H49        -7.3409   -5.6225    0.6236 H         1 <1>         0.0744
     50 H50        -7.2438   -5.7745    2.3952 H         1 <1>         0.0529
     51 H51        -9.8277   -1.4834    2.0256 H         1 <1>         0.2390
     52 H52        -5.2698    1.3129    1.7980 H         1 <1>         0.1468
     53 H53        -6.6514    1.9027   -0.1858 H         1 <1>         0.0793
     54 H54        -7.8521    2.6623    0.8874 H         1 <1>         0.0793
     55 H55        -4.9328    3.4902    0.5443 H         1 <1>         0.1117
     56 H56        -6.3683    4.3997    0.0062 H         1 <1>         0.1333
     57 H57        -6.2952    8.1913    2.9420 H         1 <1>         0.0978
     58 H58        -7.9890    7.6579    3.0623 H         1 <1>         0.0978
     59 H59        -7.0230    7.8932    4.5388 H         1 <1>         0.1267
     60 H60        -4.6799    3.2979    3.2605 H         1 <1>         0.1091
     61 H61        -5.9802    4.1047    4.1746 H         1 <1>         0.1235
     62 H62        -7.6230    2.4882    3.3473 H         1 <1>         0.0710
     63 H63        -6.2556    1.6019    4.0648 H         1 <1>         0.0710
     64 H64        -4.3252   -5.3231    1.2253 H         1 <1>         0.1519
     65 H65        -2.0237   -6.1395    0.9450 H         1 <1>         0.1359
@<TRIPOS>BOND
     1    1    2 1
     2    1   37 1
     3    1   38 1
     4    1   39 1
     5    2    3 1
     6    3    4 2
     7    3    5 am
     8    5    6 1
     9    5   40 1
    10    6   36 ar
    11    6    7 ar
    12    7    8 ar
    13    7   41 1
    14    8    9 ar
    15    8   42 1
    16    9   10 1
    17    9   35 ar
    18   10   34 ar
    19   10   11 ar
    20   11   12 ar
    21   12   13 1
    22   12   19 ar
    23   13   18 1
    24   13   14 1
    25   14   15 1
    26   14   43 1
    27   14   44 1
    28   15   16 1
    29   15   45 1
    30   15   46 1
    31   16   17 1
    32   17   18 1
    33   17   47 1
    34   17   48 1
    35   18   49 1
    36   18   50 1
    37   19   33 ar
    38   19   20 1
    39   20   21 2
    40   20   51 1
    41   21   22 1
    42   22   23 1
    43   22   33 1
    44   23   32 1
    45   23   24 1
    46   23   52 1
    47   24   25 1
    48   24   53 1
    49   24   54 1
    50   25   26 1
    51   25   55 1
    52   25   56 1
    53   26   27 am
    54   26   31 1
    55   27   28 2
    56   27   29 1
    57   29   30 1
    58   30   57 1
    59   30   58 1
    60   30   59 1
    61   31   32 1
    62   31   60 1
    63   31   61 1
    64   32   62 1
    65   32   63 1
    66   33   34 ar
    67   35   36 ar
    68   35   64 1
    69   36   65 1
@<TRIPOS>Similarity
1.0718
@<TRIPOS>ShapeSim
0.6275
@<TRIPOS>PharmSim
0.4442
# END
# Name:		CCN(CC)CCNC(=O)C1=CC=C(C=C1)N
# Created and modified by SHAFTS on Sun Mar 21 16:57:45 2021

# 

@<TRIPOS>MOLECULE
CCN(CC)CCNC(=O)C1=CC=C(C=C1)N
   39    39     0
SMALL
USER_CHARGE


@<TRIPOS>ATOM
      1 C1          1.1508   -6.8486   -0.3857 C.3       1 <1>        -0.0696
      2 C2          0.1770   -5.6686   -0.3957 C.3       1 <1>        -0.1066
      3 N3          0.3584   -4.8735    0.8261 N.4       1 <1>         0.4062
      4 H4          0.2590   -5.4704    1.6336 H         1 <1>         0.1677
      5 C5          1.6985   -4.2717    0.8243 C.3       1 <1>        -0.1051
      6 C6          1.9468   -3.5756    2.1638 C.3       1 <1>        -0.0694
      7 C7         -0.6553   -3.8116    0.8744 C.3       1 <1>        -0.0799
      8 C8         -2.0448   -4.4384    1.0051 C.3       1 <1>        -0.0400
      9 N9         -3.0438   -3.3804    1.1753 N.am      1 <1>        -0.3516
     10 C10        -4.3463   -3.6991    1.3114 C.2       1 <1>         0.0921
     11 O11        -4.6922   -4.8646    1.2930 O.2       1 <1>        -0.4800
     12 C12        -5.3522   -2.6337    1.4828 C.ar      1 <1>         0.0157
     13 C13        -4.9568   -1.2930    1.4985 C.ar      1 <1>        -0.0743
     14 C14        -5.8976   -0.3014    1.6582 C.ar      1 <1>        -0.0703
     15 C15        -7.2420   -0.6325    1.8040 C.ar      1 <1>        -0.0930
     16 N16        -8.1903    0.3717    1.9645 N.pl3     1 <1>        -0.4126
     17 C17        -7.6390   -1.9667    1.7887 C.ar      1 <1>        -0.0651
     18 C18        -6.7035   -2.9626    1.6242 C.ar      1 <1>        -0.0649
     19 H19         2.1740   -6.4751   -0.3439 H         1 <1>         0.0451
     20 H20         0.9561   -7.4730    0.4862 H         1 <1>         0.0451
     21 H21         1.0161   -7.4385   -1.2924 H         1 <1>         0.0665
     22 H22         0.3718   -5.0441   -1.2677 H         1 <1>         0.0840
     23 H23        -0.8461   -6.0421   -0.4376 H         1 <1>         0.0840
     24 H24         2.4464   -5.0505    0.6753 H         1 <1>         0.0915
     25 H25         1.7680   -3.5422    0.0173 H         1 <1>         0.0843
     26 H26         1.9313   -4.3140    2.9654 H         1 <1>         0.0451
     27 H27         2.9188   -3.0828    2.1426 H         1 <1>         0.0665
     28 H28         1.1673   -2.8339    2.3380 H         1 <1>         0.0451
     29 H29        -0.4654   -3.1667    1.7325 H         1 <1>         0.0999
     30 H30        -0.6074   -3.2217   -0.0409 H         1 <1>         0.0999
     31 H31        -2.2713   -5.0106    0.1055 H         1 <1>         0.1074
     32 H32        -2.0649   -5.0999    1.8712 H         1 <1>         0.1074
     33 H33        -2.7678   -2.4507    1.1900 H         1 <1>         0.3012
     34 H34        -3.9139   -1.0356    1.3859 H         1 <1>         0.1306
     35 H35        -5.5926    0.7345    1.6707 H         1 <1>         0.1157
     36 H36        -7.9148    1.3018    1.9750 H         1 <1>         0.2564
     37 H37        -9.1273    0.1423    2.0662 H         1 <1>         0.2642
     38 H38        -8.6826   -2.2204    1.9020 H         1 <1>         0.1171
     39 H39        -7.0122   -3.9975    1.6121 H         1 <1>         0.1534
@<TRIPOS>BOND
     1    1    2 1
     2    1   19 1
     3    1   20 1
     4    1   21 1
     5    2    3 1
     6    2   22 1
     7    2   23 1
     8    3    4 1
     9    3    5 1
    10    3    7 1
    11    5    6 1
    12    5   24 1
    13    5   25 1
    14    6   26 1
    15    6   27 1
    16    6   28 1
    17    7    8 1
    18    7   29 1
    19    7   30 1
    20    8    9 1
    21    8   31 1
    22    8   32 1
    23    9   10 am
    24    9   33 1
    25   10   11 2
    26   10   12 1
    27   12   18 ar
    28   12   13 ar
    29   13   14 ar
    30   13   34 1
    31   14   15 ar
    32   14   35 1
    33   15   16 1
    34   15   17 ar
    35   16   36 1
    36   16   37 1
    37   17   18 ar
    38   17   38 1
    39   18   39 1
@<TRIPOS>Similarity
1.0696
@<TRIPOS>ShapeSim
0.7732
@<TRIPOS>PharmSim
0.2964
# END
# Name:		O=C(C(OC)=C(OC1=CC(OC)=C2)C3=CC=C(OC)C=C3)C1=C2OC
# Created and modified by SHAFTS on Sun Mar 21 16:57:45 2021

# 

@<TRIPOS>MOLECULE
O=C(C(OC)=C(OC1=CC(OC)=C2)C3=CC=C(OC)C=C3)C1=C2OC
   43    45     0
SMALL
USER_CHARGE


@<TRIPOS>ATOM
      1 C1        -11.3088    1.9498    1.4726 C.3       1 <1>         0.0249
      2 O2        -11.0919    0.8152    2.3137 O.3       1 <1>        -0.4155
      3 C3         -9.9212    0.1454    2.1557 C.ar      1 <1>        -0.0115
      4 C4         -8.9978    0.5778    1.2117 C.ar      1 <1>        -0.0645
      5 C5         -7.8090   -0.0985    1.0478 C.ar      1 <1>        -0.0774
      6 C6         -7.5323   -1.2214    1.8330 C.ar      1 <1>        -0.0160
      7 C7         -6.2609   -1.9484    1.6616 C.2       1 <1>         0.0967
      8 C8         -6.2907   -3.3069    1.5595 C.2       1 <1>         0.1214
      9 O9         -7.4761   -3.9731    1.6151 O.3       1 <1>        -0.4180
     10 C10        -7.8907   -4.6592    0.4322 C.3       1 <1>         0.0179
     11 C11        -5.0758   -4.0212    1.3942 C.2       1 <1>         0.1356
     12 O12        -5.0635   -5.2380    1.2988 O.2       1 <1>        -0.4486
     13 C13        -3.8313   -3.2376    1.3419 C.ar      1 <1>         0.0857
     14 C14        -2.5868   -3.8602    1.1806 C.ar      1 <1>         0.0272
     15 O15        -2.5072   -5.2103    1.0686 O.3       1 <1>        -0.3940
     16 C16        -1.2033   -5.7722    0.9066 C.3       1 <1>         0.0358
     17 C17        -1.4403   -3.0889    1.1357 C.ar      1 <1>        -0.0214
     18 C18        -1.5238   -1.7055    1.2506 C.ar      1 <1>         0.0073
     19 O19        -0.3916   -0.9578    1.2056 O.3       1 <1>        -0.4041
     20 C20         0.8425   -1.6587    1.0391 C.3       1 <1>         0.0309
     21 C21        -2.7519   -1.0825    1.4099 C.ar      1 <1>         0.0028
     22 C22        -3.9129   -1.8386    1.4573 C.ar      1 <1>         0.0670
     23 O23        -5.1163   -1.2462    1.6066 O.3       1 <1>        -0.3166
     24 C24        -8.4643   -1.6529    2.7814 C.ar      1 <1>        -0.0624
     25 C25        -9.6480   -0.9670    2.9423 C.ar      1 <1>        -0.0483
     26 H26       -10.5242    2.6863    1.6464 H         1 <1>         0.0906
     27 H27       -11.2889    1.6372    0.4285 H         1 <1>         0.0906
     28 H28       -12.2787    2.3914    1.7012 H         1 <1>         0.1196
     29 H29        -9.2126    1.4453    0.6052 H         1 <1>         0.1176
     30 H30        -7.0921    0.2381    0.3137 H         1 <1>         0.1381
     31 H31        -8.8929   -5.0622    0.5783 H         1 <1>         0.1208
     32 H32        -7.8975   -3.9641   -0.4075 H         1 <1>         0.0774
     33 H33        -7.1981   -5.4745    0.2233 H         1 <1>         0.0918
     34 H34        -1.2821   -6.8566    0.8296 H         1 <1>         0.1293
     35 H35        -0.7471   -5.3757   -0.0005 H         1 <1>         0.0931
     36 H36        -0.5865   -5.5127    1.7669 H         1 <1>         0.0931
     37 H37        -0.4773   -3.5619    1.0115 H         1 <1>         0.1154
     38 H38         1.6660   -0.9448    1.0196 H         1 <1>         0.1280
     39 H39         0.9818   -2.3514    1.8691 H         1 <1>         0.0918
     40 H40         0.8212   -2.2144    0.1017 H         1 <1>         0.0918
     41 H41        -2.8041   -0.0073    1.4977 H         1 <1>         0.1491
     42 H42        -8.2546   -2.5199    3.3902 H         1 <1>         0.1533
     43 H43       -10.3684   -1.2994    3.6750 H         1 <1>         0.1336
@<TRIPOS>BOND
     1    1    2 1
     2    1   26 1
     3    1   27 1
     4    1   28 1
     5    2    3 1
     6    3   25 ar
     7    3    4 ar
     8    4    5 ar
     9    4   29 1
    10    5    6 ar
    11    5   30 1
    12    6    7 1
    13    6   24 ar
    14    7   23 1
    15    7    8 2
    16    8    9 1
    17    8   11 1
    18    9   10 1
    19   10   31 1
    20   10   32 1
    21   10   33 1
    22   11   12 2
    23   11   13 1
    24   13   22 ar
    25   13   14 ar
    26   14   15 1
    27   14   17 ar
    28   15   16 1
    29   16   34 1
    30   16   35 1
    31   16   36 1
    32   17   18 ar
    33   17   37 1
    34   18   19 1
    35   18   21 ar
    36   19   20 1
    37   20   38 1
    38   20   39 1
    39   20   40 1
    40   21   22 ar
    41   21   41 1
    42   22   23 1
    43   24   25 ar
    44   24   42 1
    45   25   43 1
@<TRIPOS>Similarity
1.0688
@<TRIPOS>ShapeSim
0.7038
@<TRIPOS>PharmSim
0.3650
# END
# Name:		CC1CN(CCN1C2=CC=C(C=C2)C)C3=C(C(=O)N(N=C3)C4=NC5=CC=CC=C5S4)Cl
# Created and modified by SHAFTS on Sun Mar 21 16:57:45 2021

# 

@<TRIPOS>MOLECULE
CC1CN(CCN1C2=CC=C(C=C2)C)C3=C(C(=O)N(N=C3)C4=NC5=CC=CC=C5S4)Cl
   53    57     0
SMALL
USER_CHARGE


@<TRIPOS>ATOM
      1 C1          2.8346  -13.1099    2.1975 C.3       1 <1>        -0.0445
      2 C2          2.3185  -11.7291    1.8837 C.ar      1 <1>        -0.1184
      3 C3          3.1096  -10.8408    1.1786 C.ar      1 <1>        -0.0981
      4 C4          2.6398   -9.5747    0.8893 C.ar      1 <1>        -0.1031
      5 C5          1.3709   -9.1942    1.3073 C.ar      1 <1>        -0.2329
      6 N6          0.8924   -7.9146    1.0161 N.3       1 <1>         0.3611
      7 C7         -0.2592   -7.9778    0.1063 C.3       1 <1>        -0.1476
      8 C8         -0.6390   -6.5590   -0.3307 C.3       1 <1>        -0.0437
      9 N9         -0.8415   -5.7379    0.8726 N.pl3     1 <1>        -0.4016
     10 C10        -1.9951   -4.9898    1.0369 C.2       1 <1>         0.0436
     11 C11        -1.9251   -3.6120    1.1383 C.2       1 <1>         0.1604
     12 Cl12       -0.3927   -2.7999    1.0616 Cl        1 <1>        -0.0739
     13 C13        -3.1104   -2.8810    1.3036 C.2       1 <1>         0.2126
     14 O14        -3.0738   -1.6638    1.3951 O.2       1 <1>        -0.4202
     15 N15        -4.2900   -3.5299    1.3603 N.am      1 <1>        -0.1552
     16 C16        -5.4654   -2.8085    1.5235 C.2       1 <1>         0.1557
     17 N17        -5.5331   -1.5268    1.6239 N.2       1 <1>        -0.3310
     18 C18        -6.7486   -0.9691    1.7783 C.ar      1 <1>        -0.0127
     19 C19        -7.0848    0.3955    1.9103 C.ar      1 <1>        -0.0503
     20 C20        -8.3937    0.7770    2.0610 C.ar      1 <1>        -0.0788
     21 C21        -9.4075   -0.1699    2.0862 C.ar      1 <1>        -0.0881
     22 C22        -9.1040   -1.5069    1.9592 C.ar      1 <1>        -0.0769
     23 C23        -7.7807   -1.9134    1.8054 C.ar      1 <1>         0.0170
     24 S24        -7.0726   -3.5154    1.6146 S.3       1 <1>         0.0024
     25 N25        -4.3409   -4.9238    1.2559 N.2       1 <1>        -0.2567
     26 C26        -3.2543   -5.6259    1.0964 C.2       1 <1>         0.0802
     27 C27         0.2138   -5.7328    1.8971 C.3       1 <1>        -0.0455
     28 C28         0.5601   -7.1842    2.2465 C.3       1 <1>        -0.1588
     29 H29        -0.2955   -7.6560    2.7298 H         1 <1>         0.0414
     30 C30         1.7600   -7.2085    3.1953 C.3       1 <1>        -0.0728
     31 C31         0.5788  -10.0891    2.0154 C.ar      1 <1>        -0.1152
     32 C32         1.0526  -11.3556    2.2964 C.ar      1 <1>        -0.1062
     33 H33         2.5681  -13.7900    1.3885 H         1 <1>         0.0545
     34 H34         3.9190  -13.0772    2.3023 H         1 <1>         0.0545
     35 H35         2.3899  -13.4609    3.1287 H         1 <1>         0.0545
     36 H36         4.0962  -11.1371    0.8543 H         1 <1>         0.1170
     37 H37         3.2583   -8.8812    0.3390 H         1 <1>         0.1334
     38 H38         0.0018   -8.5708   -0.7702 H         1 <1>         0.0681
     39 H39        -1.1033   -8.4386    0.6194 H         1 <1>         0.0323
     40 H40         0.1639   -6.1341   -0.9332 H         1 <1>         0.1130
     41 H41        -1.5604   -6.5894   -0.9125 H         1 <1>         0.1201
     42 H42        -6.3064    1.1438    1.8929 H         1 <1>         0.1530
     43 H43        -8.6374    1.8243    2.1613 H         1 <1>         0.1363
     44 H44       -10.4345    0.1418    2.2056 H         1 <1>         0.1350
     45 H45        -9.8943   -2.2427    1.9795 H         1 <1>         0.1324
     46 H46        -3.3168   -6.7011    1.0176 H         1 <1>         0.2708
     47 H47         1.0987   -5.2286    1.5089 H         1 <1>         0.1135
     48 H48        -0.1437   -5.2170    2.7884 H         1 <1>         0.1135
     49 H49         1.4975   -6.7059    4.1262 H         1 <1>         0.0402
     50 H50         2.0360   -8.2418    3.4056 H         1 <1>         0.0402
     51 H51         2.6015   -6.6952    2.7301 H         1 <1>         0.0474
     52 H52        -0.4080   -9.7963    2.3422 H         1 <1>         0.1131
     53 H53         0.4374  -12.0518    2.8468 H         1 <1>         0.1148
@<TRIPOS>BOND
     1    1    2 1
     2    1   33 1
     3    1   34 1
     4    1   35 1
     5    2   32 ar
     6    2    3 ar
     7    3    4 ar
     8    3   36 1
     9    4    5 ar
    10    4   37 1
    11    5    6 1
    12    5   31 ar
    13    6   28 1
    14    6    7 1
    15    7    8 1
    16    7   38 1
    17    7   39 1
    18    8    9 1
    19    8   40 1
    20    8   41 1
    21    9   10 1
    22    9   27 1
    23   10   26 1
    24   10   11 2
    25   11   12 1
    26   11   13 1
    27   13   14 2
    28   13   15 am
    29   15   16 1
    30   15   25 1
    31   16   24 1
    32   16   17 2
    33   17   18 1
    34   18   23 ar
    35   18   19 ar
    36   19   20 ar
    37   19   42 1
    38   20   21 ar
    39   20   43 1
    40   21   22 ar
    41   21   44 1
    42   22   23 ar
    43   22   45 1
    44   23   24 1
    45   25   26 2
    46   26   46 1
    47   27   28 1
    48   27   47 1
    49   27   48 1
    50   28   29 1
    51   28   30 1
    52   30   49 1
    53   30   50 1
    54   30   51 1
    55   31   32 ar
    56   31   52 1
    57   32   53 1
@<TRIPOS>Similarity
1.0677
@<TRIPOS>ShapeSim
0.6013
@<TRIPOS>PharmSim
0.4665
# END
# Name:		CC1=CC2=NN=C(N2C=C1)CCC3=NN=C4N3C=CC(=C4)C
# Created and modified by SHAFTS on Sun Mar 21 16:57:45 2021

# 

@<TRIPOS>MOLECULE
CC1=CC2=NN=C(N2C=C1)CCC3=NN=C4N3C=CC(=C4)C
   38    41     0
SMALL
USER_CHARGE


@<TRIPOS>ATOM
      1 C1         -9.0315   -0.9930    1.7551 C.3       1 <1>        -0.0344
      2 C2         -7.7793   -1.8314    1.7336 C.2       1 <1>        -0.0863
      3 C3         -7.8502   -3.1567    1.4357 C.2       1 <1>        -0.0227
      4 C4         -6.6684   -3.9222    1.4210 C.2       1 <1>         0.0563
      5 N5         -6.4128   -5.1971    1.1766 N.2       1 <1>        -0.2747
      6 N6         -5.1493   -5.4115    1.2928 N.2       1 <1>        -0.2752
      7 C7         -4.5291   -4.3053    1.6134 C.2       1 <1>         0.0424
      8 C8         -3.0474   -4.1477    1.8387 C.3       1 <1>         0.0354
      9 C9         -2.3657   -3.7907    0.5163 C.3       1 <1>         0.0354
     10 C10        -0.8840   -3.6330    0.7415 C.2       1 <1>         0.0424
     11 N11        -0.2645   -2.5280    1.0672 N.2       1 <1>        -0.2752
     12 N12         0.9992   -2.7420    1.1817 N.2       1 <1>        -0.2747
     13 C13         1.2556   -4.0155    0.9309 C.2       1 <1>         0.0563
     14 C14         2.4381   -4.7801    0.9120 C.2       1 <1>        -0.0226
     15 C15         2.3680   -6.1039    0.6077 C.2       1 <1>        -0.0860
     16 C16         3.6206   -6.9414    0.5819 C.3       1 <1>        -0.0329
     17 C17         1.1230   -6.6880    0.3177 C.2       1 <1>        -0.0606
     18 C18        -0.0018   -5.9426    0.3394 C.2       1 <1>        -0.0234
     19 N19         0.0528   -4.6155    0.6491 N.pl3     1 <1>        -0.2933
     20 N20        -5.4660   -3.3230    1.7064 N.pl3     1 <1>        -0.2933
     21 C21        -5.4097   -1.9930    2.0030 C.2       1 <1>        -0.0234
     22 C22        -6.5333   -1.2456    2.0155 C.2       1 <1>        -0.0606
     23 H23        -8.7755    0.0361    2.0072 H         1 <1>         0.0569
     24 H24        -9.5036   -1.0197    0.7730 H         1 <1>         0.0641
     25 H25        -9.7211   -1.3889    2.5007 H         1 <1>         0.0641
     26 H26        -8.8018   -3.6165    1.2133 H         1 <1>         0.1680
     27 H27        -2.8727   -3.3528    2.5637 H         1 <1>         0.1057
     28 H28        -2.6361   -5.0829    2.2185 H         1 <1>         0.1129
     29 H29        -2.5404   -4.5855   -0.2088 H         1 <1>         0.1057
     30 H30        -2.7770   -2.8555    0.1363 H         1 <1>         0.1129
     31 H31         3.3893   -4.3206    1.1361 H         1 <1>         0.1680
     32 H32         3.7947   -7.3653    1.5709 H         1 <1>         0.0644
     33 H33         3.5044   -7.7468   -0.1433 H         1 <1>         0.0644
     34 H34         4.4689   -6.3178    0.2995 H         1 <1>         0.0644
     35 H35         1.0661   -7.7390    0.0759 H         1 <1>         0.1510
     36 H36        -0.9532   -6.4015    0.1143 H         1 <1>         0.2037
     37 H37        -4.4580   -1.5336    2.2256 H         1 <1>         0.2037
     38 H38        -6.4757   -0.1933    2.2516 H         1 <1>         0.1510
@<TRIPOS>BOND
     1    1    2 1
     2    1   23 1
     3    1   24 1
     4    1   25 1
     5    2   22 1
     6    2    3 2
     7    3    4 1
     8    3   26 1
     9    4   20 1
    10    4    5 2
    11    5    6 1
    12    6    7 2
    13    7    8 1
    14    7   20 1
    15    8    9 1
    16    8   27 1
    17    8   28 1
    18    9   10 1
    19    9   29 1
    20    9   30 1
    21   10   19 1
    22   10   11 2
    23   11   12 1
    24   12   13 2
    25   13   19 1
    26   13   14 1
    27   14   15 2
    28   14   31 1
    29   15   16 1
    30   15   17 1
    31   16   32 1
    32   16   33 1
    33   16   34 1
    34   17   18 2
    35   17   35 1
    36   18   19 1
    37   18   36 1
    38   20   21 1
    39   21   22 2
    40   21   37 1
    41   22   38 1
@<TRIPOS>Similarity
1.0677
@<TRIPOS>ShapeSim
0.7701
@<TRIPOS>PharmSim
0.2976
# END
# Name:		OC(C=C1)=CC2=C1NC(C3=CN=CC(C4=CC5=C(C=CC(O)=C5)N4)=C3)=C2
# Created and modified by SHAFTS on Sun Mar 21 16:57:45 2021

# 

@<TRIPOS>MOLECULE
OC(C=C1)=CC2=C1NC(C3=CN=CC(C4=CC5=C(C=CC(O)=C5)N4)=C3)=C2
   41    45     0
SMALL
USER_CHARGE


@<TRIPOS>ATOM
      1 O1        -10.8481   -0.8291    2.1673 O.3       1 <1>        -0.4425
      2 C2         -9.4953   -0.7560    2.0482 C.ar      1 <1>        -0.0368
      3 C3         -8.8623    0.4837    2.0825 C.ar      1 <1>        -0.0622
      4 C4         -7.4931    0.5762    1.9627 C.ar      1 <1>        -0.0666
      5 C5         -6.7288   -0.5748    1.8064 C.ar      1 <1>        -0.0623
      6 N6         -5.3745   -0.7957    1.6648 N.pl3     1 <1>        -0.3645
      7 C7         -5.1332   -2.1442    1.5421 C.2       1 <1>        -0.0498
      8 C8         -3.7990   -2.7601    1.3734 C.ar      1 <1>        -0.0130
      9 C9         -2.6511   -1.9647    1.3323 C.ar      1 <1>        -0.0462
     10 C10        -1.4159   -2.5972    1.1711 C.ar      1 <1>        -0.0130
     11 C11        -0.1679   -1.8048    1.1212 C.2       1 <1>        -0.0498
     12 C12         1.0777   -2.3171    0.9631 C.2       1 <1>        -0.0648
     13 C13         2.0073   -1.1887    0.9697 C.ar      1 <1>        -0.0615
     14 C14         3.3958   -1.0795    0.8501 C.ar      1 <1>        -0.0557
     15 C15         3.9887    0.1662    0.8981 C.ar      1 <1>        -0.0368
     16 O16         5.3390    0.2785    0.7822 O.3       1 <1>        -0.4425
     17 C17         3.2098    1.3084    1.0644 C.ar      1 <1>        -0.0622
     18 C18         1.8408    1.2132    1.1838 C.ar      1 <1>        -0.0666
     19 C19         1.2231   -0.0317    1.1381 C.ar      1 <1>        -0.0623
     20 N20        -0.0935   -0.4350    1.2221 N.pl3     1 <1>        -0.3645
     21 C21        -1.3768   -3.9883    1.0583 C.ar      1 <1>        -0.0069
     22 N22        -2.4836   -4.7014    1.1017 N.ar      1 <1>        -0.3781
     23 C23        -3.6675   -4.1454    1.2586 C.ar      1 <1>        -0.0069
     24 C24        -6.3059   -2.8227    1.5999 C.2       1 <1>        -0.0648
     25 C25        -7.3653   -1.8299    1.7718 C.ar      1 <1>        -0.0615
     26 C26        -8.7551   -1.9116    1.8994 C.ar      1 <1>        -0.0557
     27 H27       -11.1587   -0.9115    3.0794 H         1 <1>         0.3531
     28 H28        -9.4504    1.3813    2.2036 H         1 <1>         0.1317
     29 H29        -7.0130    1.5433    1.9900 H         1 <1>         0.1298
     30 H30        -4.6945   -0.1039    1.6531 H         1 <1>         0.3236
     31 H31        -2.7170   -0.8904    1.4223 H         1 <1>         0.1396
     32 H32         1.3343   -3.3604    0.8537 H         1 <1>         0.1416
     33 H33         4.0011   -1.9646    0.7211 H         1 <1>         0.1378
     34 H34         5.6482    0.3834   -0.1279 H         1 <1>         0.3531
     35 H35         3.6836    2.2782    1.1002 H         1 <1>         0.1317
     36 H36         1.2469    2.1060    1.3130 H         1 <1>         0.1298
     37 H37        -0.8525    0.1580    1.3364 H         1 <1>         0.3236
     38 H38        -0.4266   -4.4862    0.9333 H         1 <1>         0.2213
     39 H39        -4.5492   -4.7685    1.2886 H         1 <1>         0.2213
     40 H40        -6.4331   -3.8931    1.5321 H         1 <1>         0.1416
     41 H41        -9.2469   -2.8730    1.8788 H         1 <1>         0.1378
@<TRIPOS>BOND
     1    1    2 1
     2    1   27 1
     3    2   26 ar
     4    2    3 ar
     5    3    4 ar
     6    3   28 1
     7    4    5 ar
     8    4   29 1
     9    5   25 ar
    10    5    6 1
    11    6    7 1
    12    6   30 1
    13    7    8 1
    14    7   24 2
    15    8   23 ar
    16    8    9 ar
    17    9   10 ar
    18    9   31 1
    19   10   11 1
    20   10   21 ar
    21   11   20 1
    22   11   12 2
    23   12   13 1
    24   12   32 1
    25   13   19 ar
    26   13   14 ar
    27   14   15 ar
    28   14   33 1
    29   15   16 1
    30   15   17 ar
    31   16   34 1
    32   17   18 ar
    33   17   35 1
    34   18   19 ar
    35   18   36 1
    36   19   20 1
    37   20   37 1
    38   21   22 ar
    39   21   38 1
    40   22   23 ar
    41   23   39 1
    42   24   25 1
    43   24   40 1
    44   25   26 ar
    45   26   41 1
@<TRIPOS>Similarity
1.0674
@<TRIPOS>ShapeSim
0.7352
@<TRIPOS>PharmSim
0.3321
# END
# Name:		COC1=CC(C(N2)=CC3=C2C=CC=C3)=N/C1=C\C4=C(C)C=C(C)N4
# Created and modified by SHAFTS on Sun Mar 21 16:57:45 2021

# 

@<TRIPOS>MOLECULE
COC1=CC(C(N2)=CC3=C2C=CC=C3)=N/C1=C\C4=C(C)C=C(C)N4
   43    46     0
SMALL
USER_CHARGE


@<TRIPOS>ATOM
      1 C1         -0.4655   -3.7909    0.9824 C.3       1 <1>         0.0247
      2 O2         -1.2898   -4.9580    0.9649 O.3       1 <1>        -0.4171
      3 C3         -2.6283   -4.7701    1.1051 C.2       1 <1>         0.0079
      4 C4         -3.2816   -3.5801    1.2561 C.2       1 <1>        -0.0359
      5 C5         -4.6565   -3.8674    1.3640 C.2       1 <1>        -0.0022
      6 C6         -5.7210   -2.8620    1.5394 C.2       1 <1>        -0.0103
      7 C7         -7.0478   -3.1354    1.6495 C.2       1 <1>        -0.0501
      8 C8         -7.7343   -1.8556    1.8076 C.ar      1 <1>        -0.0657
      9 C9         -9.0746   -1.4893    1.9641 C.ar      1 <1>        -0.0930
     10 C10        -9.4068   -0.1702    2.0899 C.ar      1 <1>        -0.1030
     11 C11        -8.4245    0.8102    2.0635 C.ar      1 <1>        -0.0983
     12 C12        -7.0971    0.4723    1.9098 C.ar      1 <1>        -0.0754
     13 C13        -6.7342   -0.8638    1.7803 C.ar      1 <1>        -0.0638
     14 N14        -5.5234   -1.5019    1.6227 N.pl3     1 <1>        -0.3538
     15 N15        -4.8506   -5.1740    1.2839 N.2       1 <1>        -0.3772
     16 C16        -3.6691   -5.8024    1.1188 C.2       1 <1>         0.0172
     17 C17        -3.4732   -7.1769    0.9949 C.2       1 <1>        -0.0034
     18 C18        -2.2040   -7.6781    0.6669 C.2       1 <1>        -0.0414
     19 C19        -1.6458   -8.8692    1.1197 C.2       1 <1>        -0.0991
     20 C20        -2.2888   -9.8626    2.0529 C.3       1 <1>        -0.0371
     21 C21        -0.3797   -8.9697    0.5470 C.2       1 <1>        -0.0915
     22 C22        -0.1805   -7.8718   -0.2282 C.2       1 <1>        -0.0876
     23 C23         1.0620   -7.5808   -1.0298 C.3       1 <1>        -0.0187
     24 N24        -1.2810   -7.0832   -0.1693 N.pl3     1 <1>        -0.3630
     25 H25         0.5781   -4.0813    0.8615 H         1 <1>         0.1199
     26 H26        -0.7555   -3.1291    0.1661 H         1 <1>         0.0910
     27 H27        -0.5905   -3.2719    1.9327 H         1 <1>         0.0910
     28 H28        -2.8281   -2.6004    1.2872 H         1 <1>         0.1080
     29 H29        -7.5070   -4.1126    1.6250 H         1 <1>         0.1496
     30 H30        -9.8444   -2.2464    1.9852 H         1 <1>         0.1263
     31 H31       -10.4423    0.1123    2.2104 H         1 <1>         0.1078
     32 H32        -8.7033    1.8488    2.1643 H         1 <1>         0.1260
     33 H33        -6.3409    1.2432    1.8899 H         1 <1>         0.1201
     34 H34        -4.6616   -1.0594    1.5753 H         1 <1>         0.3250
     35 H35        -4.2980   -7.8563    1.1513 H         1 <1>         0.2164
     36 H36        -2.8473  -10.5971    1.4728 H         1 <1>         0.0672
     37 H37        -1.5169  -10.3683    2.6330 H         1 <1>         0.0601
     38 H38        -2.9671   -9.3406    2.7278 H         1 <1>         0.0601
     39 H39         0.3208   -9.7786    0.6937 H         1 <1>         0.1219
     40 H40         0.9582   -8.0063   -2.0280 H         1 <1>         0.0739
     41 H41         1.2004   -6.5024   -1.1070 H         1 <1>         0.0667
     42 H42         1.9260   -8.0235   -0.5343 H         1 <1>         0.0811
     43 H43        -1.3978   -6.2388   -0.6321 H         1 <1>         0.3458
@<TRIPOS>BOND
     1    1    2 1
     2    1   25 1
     3    1   26 1
     4    1   27 1
     5    2    3 1
     6    3   16 1
     7    3    4 2
     8    4    5 1
     9    4   28 1
    10    5    6 1
    11    5   15 2
    12    6   14 1
    13    6    7 2
    14    7    8 1
    15    7   29 1
    16    8   13 ar
    17    8    9 ar
    18    9   10 ar
    19    9   30 1
    20   10   11 ar
    21   10   31 1
    22   11   12 ar
    23   11   32 1
    24   12   13 ar
    25   12   33 1
    26   13   14 1
    27   14   34 1
    28   15   16 1
    29   16   17 2
    30   17   18 1
    31   17   35 1
    32   18   24 1
    33   18   19 2
    34   19   20 1
    35   19   21 1
    36   20   36 1
    37   20   37 1
    38   20   38 1
    39   21   22 2
    40   21   39 1
    41   22   23 1
    42   22   24 1
    43   23   40 1
    44   23   41 1
    45   23   42 1
    46   24   43 1
@<TRIPOS>Similarity
1.0673
@<TRIPOS>ShapeSim
0.6566
@<TRIPOS>PharmSim
0.4107
# END
# Name:		COC1=CC2=C(C=C1)N=C3C=CC(=CC3=C2SCCCN)Cl
# Created and modified by SHAFTS on Sun Mar 21 16:57:45 2021

# 

@<TRIPOS>MOLECULE
COC1=CC2=C(C=C1)N=C3C=CC(=CC3=C2SCCCN)Cl
   40    42     0
SMALL
USER_CHARGE


@<TRIPOS>ATOM
      1 C1         -0.8080   -4.9199    0.9345 C.3       1 <1>         0.0270
      2 O2         -2.2110   -5.1696    1.0411 O.3       1 <1>        -0.4121
      3 C3         -3.0203   -4.0884    1.1980 C.ar      1 <1>        -0.0017
      4 C4         -2.4616   -2.8070    1.2416 C.ar      1 <1>        -0.0406
      5 C5         -3.2433   -1.7062    1.3973 C.ar      1 <1>        -0.0357
      6 C6         -4.6406   -1.8474    1.5170 C.ar      1 <1>        -0.0005
      7 N7         -5.4156   -0.7735    1.6696 N.ar      1 <1>        -0.3608
      8 C8         -6.7388   -0.8706    1.7856 C.ar      1 <1>        -0.0006
      9 C9         -7.5280    0.2870    1.9455 C.ar      1 <1>        -0.0344
     10 C10        -8.8774    0.1750    2.0624 C.ar      1 <1>        -0.0495
     11 C11        -9.5036   -1.0720    2.0274 C.ar      1 <1>        -0.0008
     12 Cl12      -11.2300   -1.1688    2.1800 Cl        1 <1>        -0.1278
     13 C13        -8.7770   -2.2135    1.8746 C.ar      1 <1>        -0.0467
     14 C14        -7.3794   -2.1373    1.7503 C.ar      1 <1>        -0.0236
     15 C15        -6.6024   -3.3021    1.5905 C.ar      1 <1>        -0.0255
     16 S16        -7.3511   -4.8963    1.5403 S.3       1 <1>        -0.1966
     17 C17        -7.6492   -5.0477   -0.2385 C.3       1 <1>        -0.0162
     18 C18        -8.3137   -6.3944   -0.5316 C.3       1 <1>        -0.0630
     19 C19        -8.5657   -6.5222   -2.0352 C.3       1 <1>        -0.1159
     20 N20        -9.2037   -7.8153   -2.3165 N.4       1 <1>         0.4450
     21 H21        -8.5978   -8.5625   -2.0123 H         1 <1>         0.1479
     22 H22       -10.0816   -7.8718   -1.8223 H         1 <1>         0.1479
     23 H23        -9.3700   -7.8996   -3.3081 H         1 <1>         0.1479
     24 C24        -5.2057   -3.1488    1.4720 C.ar      1 <1>        -0.0255
     25 C25        -4.3698   -4.2651    1.3054 C.ar      1 <1>        -0.0379
     26 H26        -0.6168   -4.2832    0.0707 H         1 <1>         0.0910
     27 H27        -0.4581   -4.4208    1.8382 H         1 <1>         0.0910
     28 H28        -0.2789   -5.8652    0.8134 H         1 <1>         0.1272
     29 H29        -1.3918   -2.6905    1.1505 H         1 <1>         0.1392
     30 H30        -2.7942   -0.7244    1.4295 H         1 <1>         0.1652
     31 H31        -7.0612    1.2603    1.9752 H         1 <1>         0.1629
     32 H32        -9.4753    1.0660    2.1850 H         1 <1>         0.1489
     33 H33        -9.2725   -3.1727    1.8489 H         1 <1>         0.1477
     34 H34        -8.3038   -4.2405   -0.5672 H         1 <1>         0.0818
     35 H35        -6.7009   -4.9866   -0.7724 H         1 <1>         0.0818
     36 H36        -7.6591   -7.2016   -0.2029 H         1 <1>         0.0686
     37 H37        -9.2620   -6.4554    0.0023 H         1 <1>         0.0686
     38 H38        -9.2203   -5.7151   -2.3638 H         1 <1>         0.0938
     39 H39        -7.6174   -6.4613   -2.5690 H         1 <1>         0.0938
     40 H40        -4.7920   -5.2584    1.2661 H         1 <1>         0.1380
@<TRIPOS>BOND
     1    1    2 1
     2    1   26 1
     3    1   27 1
     4    1   28 1
     5    2    3 1
     6    3   25 ar
     7    3    4 ar
     8    4    5 ar
     9    4   29 1
    10    5    6 ar
    11    5   30 1
    12    6   24 ar
    13    6    7 ar
    14    7    8 ar
    15    8   14 ar
    16    8    9 ar
    17    9   10 ar
    18    9   31 1
    19   10   11 ar
    20   10   32 1
    21   11   12 1
    22   11   13 ar
    23   13   14 ar
    24   13   33 1
    25   14   15 ar
    26   15   16 1
    27   15   24 ar
    28   16   17 1
    29   17   18 1
    30   17   34 1
    31   17   35 1
    32   18   19 1
    33   18   36 1
    34   18   37 1
    35   19   20 1
    36   19   38 1
    37   19   39 1
    38   20   21 1
    39   20   22 1
    40   20   23 1
    41   24   25 ar
    42   25   40 1
@<TRIPOS>Similarity
1.0665
@<TRIPOS>ShapeSim
0.6726
@<TRIPOS>PharmSim
0.3939
# END
# Name:		COC1=CC2=C(C=C1)N=C3C=CC(=CC3=C2SCCCN)OC
# Created and modified by SHAFTS on Sun Mar 21 16:57:45 2021

# 

@<TRIPOS>MOLECULE
COC1=CC2=C(C=C1)N=C3C=CC(=CC3=C2SCCCN)OC
   44    46     0
SMALL
USER_CHARGE


@<TRIPOS>ATOM
      1 C1         -0.8383   -4.8648    0.9419 C.3       1 <1>         0.0269
      2 O2         -2.2381   -5.1333    1.0463 O.3       1 <1>        -0.4125
      3 C3         -3.0618   -4.0631    1.2034 C.ar      1 <1>        -0.0034
      4 C4         -2.5201   -2.7741    1.2493 C.ar      1 <1>        -0.0451
      5 C5         -3.3160   -1.6842    1.4057 C.ar      1 <1>        -0.0387
      6 C6         -4.7120   -1.8438    1.5238 C.ar      1 <1>        -0.0010
      7 N7         -5.5009   -0.7809    1.6770 N.ar      1 <1>        -0.3600
      8 C8         -6.8235   -0.8956    1.7916 C.ar      1 <1>        -0.0010
      9 C9         -7.6271    0.2517    1.9521 C.ar      1 <1>        -0.0387
     10 C10        -8.9748    0.1244    2.0678 C.ar      1 <1>        -0.0451
     11 C11        -9.5871   -1.1329    2.0305 C.ar      1 <1>        -0.0034
     12 O12       -10.9383   -1.2263    2.1487 O.3       1 <1>        -0.4125
     13 C13       -11.6618   -0.0041    2.3069 C.3       1 <1>         0.0269
     14 C14        -8.8430   -2.2669    1.8766 C.ar      1 <1>        -0.0377
     15 C15        -7.4468   -2.1707    1.7540 C.ar      1 <1>        -0.0268
     16 C16        -6.6538   -3.3248    1.5933 C.ar      1 <1>        -0.0270
     17 S17        -7.3809   -4.9289    1.5401 S.3       1 <1>        -0.1993
     18 C18        -7.6752   -5.0818   -0.2392 C.3       1 <1>        -0.0168
     19 C19        -8.3212   -6.4368   -0.5347 C.3       1 <1>        -0.0631
     20 C20        -8.5700   -6.5661   -2.0388 C.3       1 <1>        -0.1159
     21 N21        -9.1903   -7.8672   -2.3225 N.4       1 <1>         0.4450
     22 H22        -8.5747   -8.6066   -2.0187 H         1 <1>         0.1479
     23 H23       -10.0679   -7.9361   -1.8293 H         1 <1>         0.1479
     24 H24        -9.3544   -7.9523   -3.3144 H         1 <1>         0.1479
     25 C25        -5.2598   -3.1528    1.4766 C.ar      1 <1>        -0.0268
     26 C26        -4.4087   -4.2579    1.3088 C.ar      1 <1>        -0.0377
     27 H27        -0.6545   -4.2246    0.0791 H         1 <1>         0.0910
     28 H28        -0.4963   -4.3622    1.8466 H         1 <1>         0.0910
     29 H29        -0.2965   -5.8028    0.8204 H         1 <1>         0.1272
     30 H30        -1.4519   -2.6434    1.1595 H         1 <1>         0.1290
     31 H31        -2.8800   -0.6967    1.4396 H         1 <1>         0.1643
     32 H32        -7.1718    1.2307    1.9836 H         1 <1>         0.1643
     33 H33        -9.5833    1.0082    2.1909 H         1 <1>         0.1290
     34 H34       -11.3234    0.5042    3.2099 H         1 <1>         0.0910
     35 H35       -11.4869    0.6362    1.4424 H         1 <1>         0.0910
     36 H36       -12.7269   -0.2205    2.3894 H         1 <1>         0.1272
     37 H37        -9.3252   -3.2328    1.8494 H         1 <1>         0.1383
     38 H38        -8.3403   -4.2829   -0.5674 H         1 <1>         0.0818
     39 H39        -6.7273   -5.0072   -0.7720 H         1 <1>         0.0818
     40 H40        -7.6563   -7.2357   -0.2065 H         1 <1>         0.0686
     41 H41        -9.2692   -6.5114   -0.0019 H         1 <1>         0.0686
     42 H42        -9.2351   -5.7673   -2.3670 H         1 <1>         0.0938
     43 H43        -7.6221   -6.4916   -2.5717 H         1 <1>         0.0938
     44 H44        -4.8176   -5.2566    1.2674 H         1 <1>         0.1383
@<TRIPOS>BOND
     1    1    2 1
     2    1   27 1
     3    1   28 1
     4    1   29 1
     5    2    3 1
     6    3   26 ar
     7    3    4 ar
     8    4    5 ar
     9    4   30 1
    10    5    6 ar
    11    5   31 1
    12    6   25 ar
    13    6    7 ar
    14    7    8 ar
    15    8   15 ar
    16    8    9 ar
    17    9   10 ar
    18    9   32 1
    19   10   11 ar
    20   10   33 1
    21   11   12 1
    22   11   14 ar
    23   12   13 1
    24   13   34 1
    25   13   35 1
    26   13   36 1
    27   14   15 ar
    28   14   37 1
    29   15   16 ar
    30   16   17 1
    31   16   25 ar
    32   17   18 1
    33   18   19 1
    34   18   38 1
    35   18   39 1
    36   19   20 1
    37   19   40 1
    38   19   41 1
    39   20   21 1
    40   20   42 1
    41   20   43 1
    42   21   22 1
    43   21   23 1
    44   21   24 1
    45   25   26 ar
    46   26   44 1
@<TRIPOS>Similarity
1.0628
@<TRIPOS>ShapeSim
0.6630
@<TRIPOS>PharmSim
0.3997
# END
# Name:		O=C(N=C(N)S/1)C1=C\C(C=C2)=CC3=C2N=CC=C3
# Created and modified by SHAFTS on Sun Mar 21 16:57:45 2021

# 

@<TRIPOS>MOLECULE
O=C(N=C(N)S/1)C1=C\C(C=C2)=CC3=C2N=CC=C3
   27    29     0
SMALL
USER_CHARGE


@<TRIPOS>ATOM
      1 N1          2.6664   -4.8278    0.6472 N.2       1 <1>        -0.4114
      2 C2          1.5021   -4.2714    0.8373 C.2       1 <1>         0.0516
      3 N3          0.2846   -4.8999    0.8310 N.am      1 <1>        -0.2521
      4 C4         -0.8033   -4.1782    1.0427 C.2       1 <1>         0.1427
      5 O5         -1.9176   -4.6670    1.0519 O.2       1 <1>        -0.4421
      6 C6         -0.5716   -2.7461    1.2662 C.2       1 <1>         0.0874
      7 C7         -1.4964   -1.7834    1.5059 C.2       1 <1>        -0.0274
      8 C8         -2.8975   -2.1544    1.7467 C.ar      1 <1>        -0.0498
      9 C9         -3.1988   -3.2724    2.5496 C.ar      1 <1>        -0.0615
     10 C10        -4.4846   -3.6340    2.7854 C.ar      1 <1>        -0.0413
     11 C11        -5.5424   -2.8912    2.2272 C.ar      1 <1>        -0.0234
     12 N12        -6.8139   -3.2357    2.4516 N.ar      1 <1>        -0.3900
     13 C13        -7.8080   -2.5521    1.9380 C.ar      1 <1>        -0.0338
     14 C14        -7.5923   -1.4350    1.1339 C.ar      1 <1>        -0.0633
     15 C15        -6.3175   -1.0267    0.8634 C.ar      1 <1>        -0.0764
     16 C16        -5.2515   -1.7635    1.4175 C.ar      1 <1>        -0.0440
     17 C17        -3.9194   -1.3976    1.1862 C.ar      1 <1>        -0.0646
     18 S18         1.1893   -2.5576    1.1611 S.3       1 <1>        -0.0482
     19 H19         3.4722   -4.2886    0.6766 H         1 <1>         0.2837
     20 H20         0.2218   -5.8550    0.6741 H         1 <1>         0.3556
     21 H21        -1.2029   -0.7442    1.5199 H         1 <1>         0.1895
     22 H22        -2.3952   -3.8493    2.9827 H         1 <1>         0.1440
     23 H23        -4.6977   -4.4944    3.4026 H         1 <1>         0.1479
     24 H24        -8.8214   -2.8637    2.1435 H         1 <1>         0.2100
     25 H25        -8.4321   -0.8930    0.7247 H         1 <1>         0.1264
     26 H26        -6.1313   -0.1633    0.2420 H         1 <1>         0.1445
     27 H27        -3.6886   -0.5382    0.5742 H         1 <1>         0.1462
@<TRIPOS>BOND
     1    1    2 2
     2    1   19 1
     3    2   18 1
     4    2    3 1
     5    3    4 am
     6    3   20 1
     7    4    5 2
     8    4    6 1
     9    6    7 2
    10    6   18 1
    11    7    8 1
    12    7   21 1
    13    8   17 ar
    14    8    9 ar
    15    9   10 ar
    16    9   22 1
    17   10   11 ar
    18   10   23 1
    19   11   16 ar
    20   11   12 ar
    21   12   13 ar
    22   13   14 ar
    23   13   24 1
    24   14   15 ar
    25   14   25 1
    26   15   16 ar
    27   15   26 1
    28   16   17 ar
    29   17   27 1
@<TRIPOS>Similarity
1.0627
@<TRIPOS>ShapeSim
0.7016
@<TRIPOS>PharmSim
0.3610
# END
# Name:		COC1=C(C2=C[N+]3=C(C=C2C=C1)C4=CC5=C(C=C4CC3)OCO5)OC
# Created and modified by SHAFTS on Sun Mar 21 16:57:45 2021

# 

@<TRIPOS>MOLECULE
COC1=C(C2=C[N+]3=C(C=C2C=C1)C4=CC5=C(C=C4CC3)OCO5)OC
   43    47     0
SMALL
USER_CHARGE


@<TRIPOS>ATOM
      1 C1        -11.0635    1.5147    2.3349 C.3       1 <1>         0.0341
      2 O2        -10.8551    0.1064    2.4583 O.3       1 <1>        -0.3973
      3 C3         -9.6025   -0.3574    2.2005 C.ar      1 <1>         0.0555
      4 C4         -8.5961    0.5392    1.8408 C.ar      1 <1>        -0.0278
      5 C5         -7.3310    0.1060    1.5771 C.ar      1 <1>        -0.0562
      6 C6         -7.0295   -1.2599    1.6675 C.ar      1 <1>        -0.0284
      7 C7         -5.7426   -1.7599    1.4098 C.ar      1 <1>        -0.0135
      8 C8         -5.5217   -3.1206    1.5183 C.ar      1 <1>         0.0136
      9 C9         -4.1605   -3.6543    1.2478 C.ar      1 <1>        -0.0293
     10 C10        -3.0476   -2.8141    1.3405 C.ar      1 <1>        -0.0267
     11 C11        -1.8100   -3.3753    1.0646 C.ar      1 <1>         0.0482
     12 C12        -1.6861   -4.7281    0.7075 C.ar      1 <1>         0.0495
     13 C13        -2.7975   -5.5593    0.6211 C.ar      1 <1>        -0.0362
     14 C14        -4.0315   -4.9995    0.9021 C.ar      1 <1>        -0.0739
     15 C15        -5.2757   -5.8524    0.8563 C.3       1 <1>         0.0004
     16 C16        -6.2301   -5.4057    1.9632 C.3       1 <1>         0.0340
     17 N17        -6.5010   -3.9670    1.8607 N.ar      1 <1>        -0.3500
     18 C18        -7.7218   -3.5463    2.1133 C.ar      1 <1>         0.0395
     19 C19        -8.0450   -2.1849    2.0313 C.ar      1 <1>         0.0343
     20 C20        -9.3411   -1.7108    2.3036 C.ar      1 <1>         0.0665
     21 O21       -10.3272   -2.5752    2.6596 O.3       1 <1>        -0.4065
     22 C22       -10.4862   -2.8390    4.0550 C.3       1 <1>         0.0253
     23 O23        -0.3796   -5.0033    0.4925 O.3       1 <1>        -0.3648
     24 C24         0.2649   -3.7219    0.3378 C.3       1 <1>         0.1209
     25 O25        -0.5799   -2.8132    1.0743 O.3       1 <1>        -0.3714
     26 H26       -12.1021    1.7501    2.5674 H         1 <1>         0.1344
     27 H27       -10.4077    2.0412    3.0285 H         1 <1>         0.0982
     28 H28       -10.8396    1.8272    1.3150 H         1 <1>         0.0982
     29 H29        -8.8230    1.5928    1.7700 H         1 <1>         0.1580
     30 H30        -6.5633    0.8129    1.2990 H         1 <1>         0.1610
     31 H31        -4.9398   -1.0933    1.1313 H         1 <1>         0.1902
     32 H32        -3.1471   -1.7741    1.6144 H         1 <1>         0.1685
     33 H33        -2.7015   -6.5992    0.3456 H         1 <1>         0.1626
     34 H34        -5.7615   -5.7363   -0.1125 H         1 <1>         0.0969
     35 H35        -5.0066   -6.8978    1.0072 H         1 <1>         0.1112
     36 H36        -7.1671   -5.9553    1.8736 H         1 <1>         0.1527
     37 H37        -5.7805   -5.6181    2.9331 H         1 <1>         0.1454
     38 H38        -8.4852   -4.2596    2.3869 H         1 <1>         0.2764
     39 H39       -10.7093   -1.9088    4.5775 H         1 <1>         0.0926
     40 H40       -11.3055   -3.5431    4.2006 H         1 <1>         0.1288
     41 H41        -9.5651   -3.2663    4.4513 H         1 <1>         0.0854
     42 H42         1.2669   -3.7442    0.7665 H         1 <1>         0.2094
     43 H43         0.3047   -3.4388   -0.7140 H         1 <1>         0.1803
@<TRIPOS>BOND
     1    1    2 1
     2    1   26 1
     3    1   27 1
     4    1   28 1
     5    2    3 1
     6    3   20 ar
     7    3    4 ar
     8    4    5 ar
     9    4   29 1
    10    5    6 ar
    11    5   30 1
    12    6   19 ar
    13    6    7 ar
    14    7    8 ar
    15    7   31 1
    16    8   17 ar
    17    8    9 1
    18    9   14 ar
    19    9   10 ar
    20   10   11 ar
    21   10   32 1
    22   11   25 1
    23   11   12 ar
    24   12   13 ar
    25   12   23 1
    26   13   14 ar
    27   13   33 1
    28   14   15 1
    29   15   16 1
    30   15   34 1
    31   15   35 1
    32   16   17 1
    33   16   36 1
    34   16   37 1
    35   17   18 ar
    36   18   19 ar
    37   18   38 1
    38   19   20 ar
    39   20   21 1
    40   21   22 1
    41   22   39 1
    42   22   40 1
    43   22   41 1
    44   23   24 1
    45   24   25 1
    46   24   42 1
    47   24   43 1
@<TRIPOS>Similarity
1.0614
@<TRIPOS>ShapeSim
0.7463
@<TRIPOS>PharmSim
0.3151
# END
# Name:		CC1=CC=C(C=C1)NC2=NC(=CS2)C3=CC=CC=N3
# Created and modified by SHAFTS on Sun Mar 21 16:57:45 2021

# 

@<TRIPOS>MOLECULE
CC1=CC=C(C=C1)NC2=NC(=CS2)C3=CC=CC=N3
   32    34     0
SMALL
USER_CHARGE


@<TRIPOS>ATOM
      1 C1         -8.4145   -0.3109    1.9834 C.3       1 <1>        -0.0443
      2 C2         -7.3671   -1.3797    1.8052 C.ar      1 <1>        -0.1141
      3 C3         -6.2109   -1.1016    1.0994 C.ar      1 <1>        -0.0962
      4 C4         -5.2492   -2.0788    0.9339 C.ar      1 <1>        -0.0727
      5 C5         -5.4442   -3.3422    1.4777 C.ar      1 <1>        -0.0595
      6 N6         -4.4729   -4.3333    1.3124 N.pl3     1 <1>        -0.3268
      7 C7         -3.1287   -3.9948    1.3216 C.2       1 <1>         0.0705
      8 N8         -2.1507   -4.8059    1.0628 N.2       1 <1>        -0.3586
      9 C9         -0.9186   -4.3014    1.1199 C.2       1 <1>         0.0106
     10 C10         0.2866   -5.1183    0.8464 C.ar      1 <1>         0.0108
     11 C11         0.1481   -6.4644    0.5104 C.ar      1 <1>        -0.0450
     12 C12         1.2830   -7.2143    0.2577 C.ar      1 <1>        -0.0870
     13 C13         2.5215   -6.5940    0.3490 C.ar      1 <1>        -0.0734
     14 C14         2.5863   -5.2553    0.6871 C.ar      1 <1>        -0.0413
     15 N15         1.4898   -4.5616    0.9178 N.ar      1 <1>        -0.3835
     16 C16        -0.8467   -2.9975    1.4432 C.2       1 <1>         0.0147
     17 S17        -2.4856   -2.3951    1.6790 S.3       1 <1>        -0.0343
     18 C18        -6.6066   -3.6180    2.1865 C.ar      1 <1>        -0.0700
     19 C19        -7.5619   -2.6346    2.3528 C.ar      1 <1>        -0.0952
     20 H20        -8.2069    0.2533    2.8926 H         1 <1>         0.0543
     21 H21        -8.3965    0.3620    1.1261 H         1 <1>         0.0543
     22 H22        -9.3978   -0.7750    2.0604 H         1 <1>         0.0543
     23 H23        -6.0600   -0.1192    0.6769 H         1 <1>         0.1291
     24 H24        -4.3467   -1.8612    0.3819 H         1 <1>         0.1223
     25 H25        -4.7393   -5.2581    1.1914 H         1 <1>         0.3320
     26 H26        -0.8313   -6.9155    0.4486 H         1 <1>         0.1382
     27 H27         1.2070   -8.2593   -0.0044 H         1 <1>         0.1358
     28 H28         3.4260   -7.1523    0.1581 H         1 <1>         0.1257
     29 H29         3.5485   -4.7701    0.7593 H         1 <1>         0.1996
     30 H30         0.0599   -2.4184    1.5381 H         1 <1>         0.1655
     31 H31        -6.7614   -4.5991    2.6106 H         1 <1>         0.1269
     32 H32        -8.4659   -2.8483    2.9037 H         1 <1>         0.1275
@<TRIPOS>BOND
     1    1    2 1
     2    1   20 1
     3    1   21 1
     4    1   22 1
     5    2   19 ar
     6    2    3 ar
     7    3    4 ar
     8    3   23 1
     9    4    5 ar
    10    4   24 1
    11    5    6 1
    12    5   18 ar
    13    6    7 1
    14    6   25 1
    15    7   17 1
    16    7    8 2
    17    8    9 1
    18    9   10 1
    19    9   16 2
    20   10   15 ar
    21   10   11 ar
    22   11   12 ar
    23   11   26 1
    24   12   13 ar
    25   12   27 1
    26   13   14 ar
    27   13   28 1
    28   14   15 ar
    29   14   29 1
    30   16   17 1
    31   16   30 1
    32   18   19 ar
    33   18   31 1
    34   19   32 1
@<TRIPOS>Similarity
1.0602
@<TRIPOS>ShapeSim
0.7264
@<TRIPOS>PharmSim
0.3338
# END
# Name:		O=C(N(C)C)C1=CC2=C(N1C3CCCC3)N=C(NC4=CC=C(N5CCNCC5)C=N4)N=C2
# Created and modified by SHAFTS on Sun Mar 21 16:57:45 2021

# 

@<TRIPOS>MOLECULE
O=C(N(C)C)C1=CC2=C(N1C3CCCC3)N=C(NC4=CC=C(N5CCNCC5)C=N4)N=C2
   63    67     0
SMALL
USER_CHARGE


@<TRIPOS>ATOM
      1 C1        -12.7998    1.5536    2.5096 C.3       1 <1>        -0.0135
      2 N2        -11.4489    1.0677    2.2182 N.am      1 <1>        -0.3465
      3 C3        -10.3819    2.0187    1.8964 C.3       1 <1>        -0.0140
      4 C4        -11.1875   -0.2543    2.2461 C.2       1 <1>         0.1435
      5 O5        -12.0935   -1.0502    2.4077 O.2       1 <1>        -0.4648
      6 C6         -9.8092   -0.7340    2.0813 C.2       1 <1>         0.0748
      7 C7         -8.7005    0.0521    2.0374 C.2       1 <1>        -0.0367
      8 C8         -7.5828   -0.7955    1.8696 C.ar      1 <1>         0.0087
      9 C9         -6.2032   -0.5862    1.7570 C.ar      1 <1>         0.0079
     10 N10        -5.4146   -1.6338    1.6049 N.ar      1 <1>        -0.3124
     11 C11        -5.9087   -2.8664    1.5580 C.ar      1 <1>         0.0922
     12 N12        -5.0364   -3.9287    1.3969 N.pl3     1 <1>        -0.2584
     13 C13        -3.6803   -3.6899    1.1746 C.ar      1 <1>         0.0342
     14 C14        -2.8325   -4.7548    0.8922 C.ar      1 <1>        -0.0248
     15 C15        -1.4891   -4.5076    0.6733 C.ar      1 <1>        -0.0922
     16 C16        -1.0361   -3.1915    0.7452 C.ar      1 <1>        -0.2049
     17 N17         0.3149   -2.8944    0.5304 N.3       1 <1>         0.3568
     18 C18         1.1739   -3.6533    1.4504 C.3       1 <1>        -0.1764
     19 C19         2.6414   -3.3459    1.1438 C.3       1 <1>        -0.1164
     20 N20         2.8825   -1.9052    1.2976 N.4       1 <1>         0.4291
     21 H21         2.6603   -1.6260    2.2414 H         1 <1>         0.1556
     22 H22         3.8528   -1.7046    1.1072 H         1 <1>         0.1632
     23 C23         2.0355   -1.1620    0.3553 C.3       1 <1>        -0.1164
     24 C24         0.5631   -1.4512    0.6553 C.3       1 <1>        -0.1764
     25 C25        -1.9407   -2.1797    1.0319 C.ar      1 <1>        -0.0350
     26 N26        -3.2164   -2.4516    1.2298 N.ar      1 <1>        -0.3408
     27 N27        -7.2039   -3.1151    1.6601 N.ar      1 <1>        -0.3070
     28 C28        -8.0718   -2.1209    1.8153 C.ar      1 <1>         0.0352
     29 N29        -9.4300   -2.0600    1.9517 N.pl3     1 <1>        -0.3112
     30 C30       -10.3377   -3.2099    1.9593 C.3       1 <1>        -0.0045
     31 C31       -10.2931   -3.9273    0.5943 C.3       1 <1>        -0.0433
     32 C32        -9.2731   -5.0745    0.8013 C.3       1 <1>        -0.0639
     33 C33        -9.5725   -5.5414    2.2474 C.3       1 <1>        -0.0644
     34 C34        -9.8796   -4.2361    3.0104 C.3       1 <1>        -0.0421
     35 H35       -13.3746    1.6057    1.5850 H         1 <1>         0.0895
     36 H36       -13.2896    0.8708    3.2039 H         1 <1>         0.1039
     37 H37       -12.7405    2.5458    2.9570 H         1 <1>         0.1039
     38 H38        -9.8111    2.2429    2.7976 H         1 <1>         0.0907
     39 H39        -9.7212    1.5834    1.1467 H         1 <1>         0.1050
     40 H40       -10.8196    2.9372    1.5056 H         1 <1>         0.0979
     41 H41        -8.6784    1.1290    2.1160 H         1 <1>         0.1608
     42 H42        -5.7924    0.4120    1.7936 H         1 <1>         0.2436
     43 H43        -5.3681   -4.8392    1.4385 H         1 <1>         0.3612
     44 H44        -3.2176   -5.7626    0.8446 H         1 <1>         0.1356
     45 H45        -0.8073   -5.3155    0.4522 H         1 <1>         0.1458
     46 H46         0.9492   -3.3666    2.4777 H         1 <1>         0.0437
     47 H47         0.9912   -4.7202    1.3219 H         1 <1>         0.0868
     48 H48         3.2798   -3.8969    1.8344 H         1 <1>         0.0990
     49 H49         2.8692   -3.6454    0.1208 H         1 <1>         0.0990
     50 H50         2.2249   -0.0938    0.4612 H         1 <1>         0.0990
     51 H51         2.2665   -1.4726   -0.6637 H         1 <1>         0.0990
     52 H52        -0.0652   -0.9115   -0.0534 H         1 <1>         0.0868
     53 H53         0.3283   -1.1282    1.6695 H         1 <1>         0.0437
     54 H54        -1.5976   -1.1573    1.0894 H         1 <1>         0.2086
     55 H55       -11.3541   -2.8816    2.1763 H         1 <1>         0.1471
     56 H56       -11.2742   -4.3299    0.3427 H         1 <1>         0.0609
     57 H57        -9.9483   -3.2460   -0.1836 H         1 <1>         0.0537
     58 H58        -9.4500   -5.8815    0.0904 H         1 <1>         0.0380
     59 H59        -8.2517   -4.7028    0.7190 H         1 <1>         0.0593
     60 H60       -10.4373   -6.2046    2.2628 H         1 <1>         0.0484
     61 H61        -8.7020   -6.0380    2.6759 H         1 <1>         0.0484
     62 H62        -8.9819   -3.8787    3.5149 H         1 <1>         0.0544
     63 H63       -10.6740   -4.4065    3.7369 H         1 <1>         0.0615
@<TRIPOS>BOND
     1    1    2 1
     2    1   35 1
     3    1   36 1
     4    1   37 1
     5    2    3 1
     6    2    4 am
     7    3   38 1
     8    3   39 1
     9    3   40 1
    10    4    5 2
    11    4    6 1
    12    6   29 1
    13    6    7 2
    14    7    8 1
    15    7   41 1
    16    8   28 ar
    17    8    9 ar
    18    9   10 ar
    19    9   42 1
    20   10   11 ar
    21   11   12 1
    22   11   27 ar
    23   12   13 1
    24   12   43 1
    25   13   26 ar
    26   13   14 ar
    27   14   15 ar
    28   14   44 1
    29   15   16 ar
    30   15   45 1
    31   16   17 1
    32   16   25 ar
    33   17   24 1
    34   17   18 1
    35   18   19 1
    36   18   46 1
    37   18   47 1
    38   19   20 1
    39   19   48 1
    40   19   49 1
    41   20   21 1
    42   20   22 1
    43   20   23 1
    44   23   24 1
    45   23   50 1
    46   23   51 1
    47   24   52 1
    48   24   53 1
    49   25   26 ar
    50   25   54 1
    51   27   28 ar
    52   28   29 1
    53   29   30 1
    54   30   34 1
    55   30   31 1
    56   30   55 1
    57   31   32 1
    58   31   56 1
    59   31   57 1
    60   32   33 1
    61   32   58 1
    62   32   59 1
    63   33   34 1
    64   33   60 1
    65   33   61 1
    66   34   62 1
    67   34   63 1
@<TRIPOS>Similarity
1.0588
@<TRIPOS>ShapeSim
0.7178
@<TRIPOS>PharmSim
0.3410
# END
# Name:		CN(C)C(=O)C1=CC2=CN=C(N=C2N1C3CCCC3)NC4=NC=C(C=C4)N5CCNCC5
# Created and modified by SHAFTS on Sun Mar 21 16:57:45 2021

# 

@<TRIPOS>MOLECULE
CN(C)C(=O)C1=CC2=CN=C(N=C2N1C3CCCC3)NC4=NC=C(C=C4)N5CCNCC5
   63    67     0
SMALL
USER_CHARGE


@<TRIPOS>ATOM
      1 C1        -12.7998    1.5536    2.5096 C.3       1 <1>        -0.0135
      2 N2        -11.4489    1.0677    2.2182 N.am      1 <1>        -0.3465
      3 C3        -10.3819    2.0187    1.8964 C.3       1 <1>        -0.0140
      4 C4        -11.1875   -0.2543    2.2461 C.2       1 <1>         0.1435
      5 O5        -12.0935   -1.0502    2.4077 O.2       1 <1>        -0.4648
      6 C6         -9.8092   -0.7340    2.0813 C.2       1 <1>         0.0748
      7 C7         -8.7005    0.0521    2.0374 C.2       1 <1>        -0.0367
      8 C8         -7.5828   -0.7955    1.8696 C.ar      1 <1>         0.0087
      9 C9         -6.2032   -0.5862    1.7570 C.ar      1 <1>         0.0079
     10 N10        -5.4146   -1.6338    1.6049 N.ar      1 <1>        -0.3124
     11 C11        -5.9087   -2.8664    1.5580 C.ar      1 <1>         0.0922
     12 N12        -5.0364   -3.9287    1.3969 N.pl3     1 <1>        -0.2584
     13 C13        -3.6803   -3.6899    1.1746 C.ar      1 <1>         0.0342
     14 C14        -2.8325   -4.7548    0.8922 C.ar      1 <1>        -0.0248
     15 C15        -1.4891   -4.5076    0.6733 C.ar      1 <1>        -0.0922
     16 C16        -1.0361   -3.1915    0.7452 C.ar      1 <1>        -0.2049
     17 N17         0.3149   -2.8944    0.5304 N.3       1 <1>         0.3568
     18 C18         1.1739   -3.6533    1.4504 C.3       1 <1>        -0.1764
     19 C19         2.6414   -3.3459    1.1438 C.3       1 <1>        -0.1164
     20 N20         2.8825   -1.9052    1.2976 N.4       1 <1>         0.4291
     21 H21         2.6603   -1.6260    2.2414 H         1 <1>         0.1556
     22 H22         3.8528   -1.7046    1.1072 H         1 <1>         0.1632
     23 C23         2.0355   -1.1620    0.3553 C.3       1 <1>        -0.1164
     24 C24         0.5631   -1.4512    0.6553 C.3       1 <1>        -0.1764
     25 C25        -1.9407   -2.1797    1.0319 C.ar      1 <1>        -0.0350
     26 N26        -3.2164   -2.4516    1.2298 N.ar      1 <1>        -0.3408
     27 N27        -7.2039   -3.1151    1.6601 N.ar      1 <1>        -0.3070
     28 C28        -8.0718   -2.1209    1.8153 C.ar      1 <1>         0.0352
     29 N29        -9.4300   -2.0600    1.9517 N.pl3     1 <1>        -0.3112
     30 C30       -10.3377   -3.2099    1.9593 C.3       1 <1>        -0.0045
     31 C31       -10.2931   -3.9273    0.5943 C.3       1 <1>        -0.0433
     32 C32        -9.2731   -5.0745    0.8013 C.3       1 <1>        -0.0639
     33 C33        -9.5725   -5.5414    2.2474 C.3       1 <1>        -0.0644
     34 C34        -9.8796   -4.2361    3.0104 C.3       1 <1>        -0.0421
     35 H35       -13.3746    1.6057    1.5850 H         1 <1>         0.0895
     36 H36       -13.2896    0.8708    3.2039 H         1 <1>         0.1039
     37 H37       -12.7405    2.5458    2.9570 H         1 <1>         0.1039
     38 H38        -9.8111    2.2429    2.7976 H         1 <1>         0.0907
     39 H39        -9.7212    1.5834    1.1467 H         1 <1>         0.1050
     40 H40       -10.8196    2.9372    1.5056 H         1 <1>         0.0979
     41 H41        -8.6784    1.1290    2.1160 H         1 <1>         0.1608
     42 H42        -5.7924    0.4120    1.7936 H         1 <1>         0.2436
     43 H43        -5.3681   -4.8392    1.4385 H         1 <1>         0.3612
     44 H44        -3.2176   -5.7626    0.8446 H         1 <1>         0.1356
     45 H45        -0.8073   -5.3155    0.4522 H         1 <1>         0.1458
     46 H46         0.9492   -3.3666    2.4777 H         1 <1>         0.0437
     47 H47         0.9912   -4.7202    1.3219 H         1 <1>         0.0868
     48 H48         3.2798   -3.8969    1.8344 H         1 <1>         0.0990
     49 H49         2.8692   -3.6454    0.1208 H         1 <1>         0.0990
     50 H50         2.2249   -0.0938    0.4612 H         1 <1>         0.0990
     51 H51         2.2665   -1.4726   -0.6637 H         1 <1>         0.0990
     52 H52        -0.0652   -0.9115   -0.0534 H         1 <1>         0.0868
     53 H53         0.3283   -1.1282    1.6695 H         1 <1>         0.0437
     54 H54        -1.5976   -1.1573    1.0894 H         1 <1>         0.2086
     55 H55       -11.3541   -2.8816    2.1763 H         1 <1>         0.1471
     56 H56       -11.2742   -4.3299    0.3427 H         1 <1>         0.0609
     57 H57        -9.9483   -3.2460   -0.1836 H         1 <1>         0.0537
     58 H58        -9.4500   -5.8815    0.0904 H         1 <1>         0.0380
     59 H59        -8.2517   -4.7028    0.7190 H         1 <1>         0.0593
     60 H60       -10.4373   -6.2046    2.2628 H         1 <1>         0.0484
     61 H61        -8.7020   -6.0380    2.6759 H         1 <1>         0.0484
     62 H62        -8.9819   -3.8787    3.5149 H         1 <1>         0.0544
     63 H63       -10.6740   -4.4065    3.7369 H         1 <1>         0.0615
@<TRIPOS>BOND
     1    1    2 1
     2    1   35 1
     3    1   36 1
     4    1   37 1
     5    2    3 1
     6    2    4 am
     7    3   38 1
     8    3   39 1
     9    3   40 1
    10    4    5 2
    11    4    6 1
    12    6   29 1
    13    6    7 2
    14    7    8 1
    15    7   41 1
    16    8   28 ar
    17    8    9 ar
    18    9   10 ar
    19    9   42 1
    20   10   11 ar
    21   11   12 1
    22   11   27 ar
    23   12   13 1
    24   12   43 1
    25   13   26 ar
    26   13   14 ar
    27   14   15 ar
    28   14   44 1
    29   15   16 ar
    30   15   45 1
    31   16   17 1
    32   16   25 ar
    33   17   24 1
    34   17   18 1
    35   18   19 1
    36   18   46 1
    37   18   47 1
    38   19   20 1
    39   19   48 1
    40   19   49 1
    41   20   21 1
    42   20   22 1
    43   20   23 1
    44   23   24 1
    45   23   50 1
    46   23   51 1
    47   24   52 1
    48   24   53 1
    49   25   26 ar
    50   25   54 1
    51   27   28 ar
    52   28   29 1
    53   29   30 1
    54   30   34 1
    55   30   31 1
    56   30   55 1
    57   31   32 1
    58   31   56 1
    59   31   57 1
    60   32   33 1
    61   32   58 1
    62   32   59 1
    63   33   34 1
    64   33   60 1
    65   33   61 1
    66   34   62 1
    67   34   63 1
@<TRIPOS>Similarity
1.0588
@<TRIPOS>ShapeSim
0.7178
@<TRIPOS>PharmSim
0.3410
# END
# Name:		O=C(N(C)C)C1=CC2=C(N1C3CCCC3)N=C(NC4=CC=C(N5CCNCC5)C=N4)N=C2
# Created and modified by SHAFTS on Sun Mar 21 16:57:45 2021

# 

@<TRIPOS>MOLECULE
O=C(N(C)C)C1=CC2=C(N1C3CCCC3)N=C(NC4=CC=C(N5CCNCC5)C=N4)N=C2
   63    67     0
SMALL
USER_CHARGE


@<TRIPOS>ATOM
      1 C1        -12.7998    1.5536    2.5096 C.3       1 <1>        -0.0135
      2 N2        -11.4489    1.0677    2.2182 N.am      1 <1>        -0.3465
      3 C3        -10.3819    2.0187    1.8964 C.3       1 <1>        -0.0140
      4 C4        -11.1875   -0.2543    2.2461 C.2       1 <1>         0.1435
      5 O5        -12.0935   -1.0502    2.4077 O.2       1 <1>        -0.4648
      6 C6         -9.8092   -0.7340    2.0813 C.2       1 <1>         0.0748
      7 C7         -8.7005    0.0521    2.0374 C.2       1 <1>        -0.0367
      8 C8         -7.5828   -0.7955    1.8696 C.ar      1 <1>         0.0087
      9 C9         -6.2032   -0.5862    1.7570 C.ar      1 <1>         0.0079
     10 N10        -5.4146   -1.6338    1.6049 N.ar      1 <1>        -0.3124
     11 C11        -5.9087   -2.8664    1.5580 C.ar      1 <1>         0.0922
     12 N12        -5.0364   -3.9287    1.3969 N.pl3     1 <1>        -0.2584
     13 C13        -3.6803   -3.6899    1.1746 C.ar      1 <1>         0.0342
     14 C14        -2.8325   -4.7548    0.8922 C.ar      1 <1>        -0.0248
     15 C15        -1.4891   -4.5076    0.6733 C.ar      1 <1>        -0.0922
     16 C16        -1.0361   -3.1915    0.7452 C.ar      1 <1>        -0.2049
     17 N17         0.3149   -2.8944    0.5304 N.3       1 <1>         0.3568
     18 C18         1.1739   -3.6533    1.4504 C.3       1 <1>        -0.1764
     19 C19         2.6414   -3.3459    1.1438 C.3       1 <1>        -0.1164
     20 N20         2.8825   -1.9052    1.2976 N.4       1 <1>         0.4291
     21 H21         2.6603   -1.6260    2.2414 H         1 <1>         0.1556
     22 H22         3.8528   -1.7046    1.1072 H         1 <1>         0.1632
     23 C23         2.0355   -1.1620    0.3553 C.3       1 <1>        -0.1164
     24 C24         0.5631   -1.4512    0.6553 C.3       1 <1>        -0.1764
     25 C25        -1.9407   -2.1797    1.0319 C.ar      1 <1>        -0.0350
     26 N26        -3.2164   -2.4516    1.2298 N.ar      1 <1>        -0.3408
     27 N27        -7.2039   -3.1151    1.6601 N.ar      1 <1>        -0.3070
     28 C28        -8.0718   -2.1209    1.8153 C.ar      1 <1>         0.0352
     29 N29        -9.4300   -2.0600    1.9517 N.pl3     1 <1>        -0.3112
     30 C30       -10.3377   -3.2099    1.9593 C.3       1 <1>        -0.0045
     31 C31       -10.2931   -3.9273    0.5943 C.3       1 <1>        -0.0433
     32 C32        -9.2731   -5.0745    0.8013 C.3       1 <1>        -0.0639
     33 C33        -9.5725   -5.5414    2.2474 C.3       1 <1>        -0.0644
     34 C34        -9.8796   -4.2361    3.0104 C.3       1 <1>        -0.0421
     35 H35       -13.3746    1.6057    1.5850 H         1 <1>         0.0895
     36 H36       -13.2896    0.8708    3.2039 H         1 <1>         0.1039
     37 H37       -12.7405    2.5458    2.9570 H         1 <1>         0.1039
     38 H38        -9.8111    2.2429    2.7976 H         1 <1>         0.0907
     39 H39        -9.7212    1.5834    1.1467 H         1 <1>         0.1050
     40 H40       -10.8196    2.9372    1.5056 H         1 <1>         0.0979
     41 H41        -8.6784    1.1290    2.1160 H         1 <1>         0.1608
     42 H42        -5.7924    0.4120    1.7936 H         1 <1>         0.2436
     43 H43        -5.3681   -4.8392    1.4385 H         1 <1>         0.3612
     44 H44        -3.2176   -5.7626    0.8446 H         1 <1>         0.1356
     45 H45        -0.8073   -5.3155    0.4522 H         1 <1>         0.1458
     46 H46         0.9492   -3.3666    2.4777 H         1 <1>         0.0437
     47 H47         0.9912   -4.7202    1.3219 H         1 <1>         0.0868
     48 H48         3.2798   -3.8969    1.8344 H         1 <1>         0.0990
     49 H49         2.8692   -3.6454    0.1208 H         1 <1>         0.0990
     50 H50         2.2249   -0.0938    0.4612 H         1 <1>         0.0990
     51 H51         2.2665   -1.4726   -0.6637 H         1 <1>         0.0990
     52 H52        -0.0652   -0.9115   -0.0534 H         1 <1>         0.0868
     53 H53         0.3283   -1.1282    1.6695 H         1 <1>         0.0437
     54 H54        -1.5976   -1.1573    1.0894 H         1 <1>         0.2086
     55 H55       -11.3541   -2.8816    2.1763 H         1 <1>         0.1471
     56 H56       -11.2742   -4.3299    0.3427 H         1 <1>         0.0609
     57 H57        -9.9483   -3.2460   -0.1836 H         1 <1>         0.0537
     58 H58        -9.4500   -5.8815    0.0904 H         1 <1>         0.0380
     59 H59        -8.2517   -4.7028    0.7190 H         1 <1>         0.0593
     60 H60       -10.4373   -6.2046    2.2628 H         1 <1>         0.0484
     61 H61        -8.7020   -6.0380    2.6759 H         1 <1>         0.0484
     62 H62        -8.9819   -3.8787    3.5149 H         1 <1>         0.0544
     63 H63       -10.6740   -4.4065    3.7369 H         1 <1>         0.0615
@<TRIPOS>BOND
     1    1    2 1
     2    1   35 1
     3    1   36 1
     4    1   37 1
     5    2    3 1
     6    2    4 am
     7    3   38 1
     8    3   39 1
     9    3   40 1
    10    4    5 2
    11    4    6 1
    12    6   29 1
    13    6    7 2
    14    7    8 1
    15    7   41 1
    16    8   28 ar
    17    8    9 ar
    18    9   10 ar
    19    9   42 1
    20   10   11 ar
    21   11   12 1
    22   11   27 ar
    23   12   13 1
    24   12   43 1
    25   13   26 ar
    26   13   14 ar
    27   14   15 ar
    28   14   44 1
    29   15   16 ar
    30   15   45 1
    31   16   17 1
    32   16   25 ar
    33   17   24 1
    34   17   18 1
    35   18   19 1
    36   18   46 1
    37   18   47 1
    38   19   20 1
    39   19   48 1
    40   19   49 1
    41   20   21 1
    42   20   22 1
    43   20   23 1
    44   23   24 1
    45   23   50 1
    46   23   51 1
    47   24   52 1
    48   24   53 1
    49   25   26 ar
    50   25   54 1
    51   27   28 ar
    52   28   29 1
    53   29   30 1
    54   30   34 1
    55   30   31 1
    56   30   55 1
    57   31   32 1
    58   31   56 1
    59   31   57 1
    60   32   33 1
    61   32   58 1
    62   32   59 1
    63   33   34 1
    64   33   60 1
    65   33   61 1
    66   34   62 1
    67   34   63 1
@<TRIPOS>Similarity
1.0588
@<TRIPOS>ShapeSim
0.7178
@<TRIPOS>PharmSim
0.3410
# END
# Name:		CN(C)C(=O)C1=CC2=CN=C(N=C2N1C3CCCC3)NC4=NC=C(C=C4)N5CCNCC5
# Created and modified by SHAFTS on Sun Mar 21 16:57:45 2021

# 

@<TRIPOS>MOLECULE
CN(C)C(=O)C1=CC2=CN=C(N=C2N1C3CCCC3)NC4=NC=C(C=C4)N5CCNCC5
   63    67     0
SMALL
USER_CHARGE


@<TRIPOS>ATOM
      1 C1        -12.7998    1.5536    2.5096 C.3       1 <1>        -0.0135
      2 N2        -11.4489    1.0677    2.2182 N.am      1 <1>        -0.3465
      3 C3        -10.3819    2.0187    1.8964 C.3       1 <1>        -0.0140
      4 C4        -11.1875   -0.2543    2.2461 C.2       1 <1>         0.1435
      5 O5        -12.0935   -1.0502    2.4077 O.2       1 <1>        -0.4648
      6 C6         -9.8092   -0.7340    2.0813 C.2       1 <1>         0.0748
      7 C7         -8.7005    0.0521    2.0374 C.2       1 <1>        -0.0367
      8 C8         -7.5828   -0.7955    1.8696 C.ar      1 <1>         0.0087
      9 C9         -6.2032   -0.5862    1.7570 C.ar      1 <1>         0.0079
     10 N10        -5.4146   -1.6338    1.6049 N.ar      1 <1>        -0.3124
     11 C11        -5.9087   -2.8664    1.5580 C.ar      1 <1>         0.0922
     12 N12        -5.0364   -3.9287    1.3969 N.pl3     1 <1>        -0.2584
     13 C13        -3.6803   -3.6899    1.1746 C.ar      1 <1>         0.0342
     14 C14        -2.8325   -4.7548    0.8922 C.ar      1 <1>        -0.0248
     15 C15        -1.4891   -4.5076    0.6733 C.ar      1 <1>        -0.0922
     16 C16        -1.0361   -3.1915    0.7452 C.ar      1 <1>        -0.2049
     17 N17         0.3149   -2.8944    0.5304 N.3       1 <1>         0.3568
     18 C18         1.1739   -3.6533    1.4504 C.3       1 <1>        -0.1764
     19 C19         2.6414   -3.3459    1.1438 C.3       1 <1>        -0.1164
     20 N20         2.8825   -1.9052    1.2976 N.4       1 <1>         0.4291
     21 H21         2.6603   -1.6260    2.2414 H         1 <1>         0.1556
     22 H22         3.8528   -1.7046    1.1072 H         1 <1>         0.1632
     23 C23         2.0355   -1.1620    0.3553 C.3       1 <1>        -0.1164
     24 C24         0.5631   -1.4512    0.6553 C.3       1 <1>        -0.1764
     25 C25        -1.9407   -2.1797    1.0319 C.ar      1 <1>        -0.0350
     26 N26        -3.2164   -2.4516    1.2298 N.ar      1 <1>        -0.3408
     27 N27        -7.2039   -3.1151    1.6601 N.ar      1 <1>        -0.3070
     28 C28        -8.0718   -2.1209    1.8153 C.ar      1 <1>         0.0352
     29 N29        -9.4300   -2.0600    1.9517 N.pl3     1 <1>        -0.3112
     30 C30       -10.3377   -3.2099    1.9593 C.3       1 <1>        -0.0045
     31 C31       -10.2931   -3.9273    0.5943 C.3       1 <1>        -0.0433
     32 C32        -9.2731   -5.0745    0.8013 C.3       1 <1>        -0.0639
     33 C33        -9.5725   -5.5414    2.2474 C.3       1 <1>        -0.0644
     34 C34        -9.8796   -4.2361    3.0104 C.3       1 <1>        -0.0421
     35 H35       -13.3746    1.6057    1.5850 H         1 <1>         0.0895
     36 H36       -13.2896    0.8708    3.2039 H         1 <1>         0.1039
     37 H37       -12.7405    2.5458    2.9570 H         1 <1>         0.1039
     38 H38        -9.8111    2.2429    2.7976 H         1 <1>         0.0907
     39 H39        -9.7212    1.5834    1.1467 H         1 <1>         0.1050
     40 H40       -10.8196    2.9372    1.5056 H         1 <1>         0.0979
     41 H41        -8.6784    1.1290    2.1160 H         1 <1>         0.1608
     42 H42        -5.7924    0.4120    1.7936 H         1 <1>         0.2436
     43 H43        -5.3681   -4.8392    1.4385 H         1 <1>         0.3612
     44 H44        -3.2176   -5.7626    0.8446 H         1 <1>         0.1356
     45 H45        -0.8073   -5.3155    0.4522 H         1 <1>         0.1458
     46 H46         0.9492   -3.3666    2.4777 H         1 <1>         0.0437
     47 H47         0.9912   -4.7202    1.3219 H         1 <1>         0.0868
     48 H48         3.2798   -3.8969    1.8344 H         1 <1>         0.0990
     49 H49         2.8692   -3.6454    0.1208 H         1 <1>         0.0990
     50 H50         2.2249   -0.0938    0.4612 H         1 <1>         0.0990
     51 H51         2.2665   -1.4726   -0.6637 H         1 <1>         0.0990
     52 H52        -0.0652   -0.9115   -0.0534 H         1 <1>         0.0868
     53 H53         0.3283   -1.1282    1.6695 H         1 <1>         0.0437
     54 H54        -1.5976   -1.1573    1.0894 H         1 <1>         0.2086
     55 H55       -11.3541   -2.8816    2.1763 H         1 <1>         0.1471
     56 H56       -11.2742   -4.3299    0.3427 H         1 <1>         0.0609
     57 H57        -9.9483   -3.2460   -0.1836 H         1 <1>         0.0537
     58 H58        -9.4500   -5.8815    0.0904 H         1 <1>         0.0380
     59 H59        -8.2517   -4.7028    0.7190 H         1 <1>         0.0593
     60 H60       -10.4373   -6.2046    2.2628 H         1 <1>         0.0484
     61 H61        -8.7020   -6.0380    2.6759 H         1 <1>         0.0484
     62 H62        -8.9819   -3.8787    3.5149 H         1 <1>         0.0544
     63 H63       -10.6740   -4.4065    3.7369 H         1 <1>         0.0615
@<TRIPOS>BOND
     1    1    2 1
     2    1   35 1
     3    1   36 1
     4    1   37 1
     5    2    3 1
     6    2    4 am
     7    3   38 1
     8    3   39 1
     9    3   40 1
    10    4    5 2
    11    4    6 1
    12    6   29 1
    13    6    7 2
    14    7    8 1
    15    7   41 1
    16    8   28 ar
    17    8    9 ar
    18    9   10 ar
    19    9   42 1
    20   10   11 ar
    21   11   12 1
    22   11   27 ar
    23   12   13 1
    24   12   43 1
    25   13   26 ar
    26   13   14 ar
    27   14   15 ar
    28   14   44 1
    29   15   16 ar
    30   15   45 1
    31   16   17 1
    32   16   25 ar
    33   17   24 1
    34   17   18 1
    35   18   19 1
    36   18   46 1
    37   18   47 1
    38   19   20 1
    39   19   48 1
    40   19   49 1
    41   20   21 1
    42   20   22 1
    43   20   23 1
    44   23   24 1
    45   23   50 1
    46   23   51 1
    47   24   52 1
    48   24   53 1
    49   25   26 ar
    50   25   54 1
    51   27   28 ar
    52   28   29 1
    53   29   30 1
    54   30   34 1
    55   30   31 1
    56   30   55 1
    57   31   32 1
    58   31   56 1
    59   31   57 1
    60   32   33 1
    61   32   58 1
    62   32   59 1
    63   33   34 1
    64   33   60 1
    65   33   61 1
    66   34   62 1
    67   34   63 1
@<TRIPOS>Similarity
1.0588
@<TRIPOS>ShapeSim
0.7178
@<TRIPOS>PharmSim
0.3410
# END
# Name:		CCN1C2=C(C=CC(=C2)OC)SC1=CC(=O)C
# Created and modified by SHAFTS on Sun Mar 21 16:57:45 2021

# 

@<TRIPOS>MOLECULE
CCN1C2=C(C=CC(=C2)OC)SC1=CC(=O)C
   32    33     0
SMALL
USER_CHARGE


@<TRIPOS>ATOM
      1 C1         -8.4145   -5.1639    3.0665 C.3       1 <1>        -0.0414
      2 C2         -8.2447   -4.6437    1.6377 C.3       1 <1>        -0.0140
      3 N3         -7.3922   -3.4524    1.6498 N.pl3     1 <1>        -0.3553
      4 C4         -7.9373   -2.1913    1.7962 C.ar      1 <1>        -0.0322
      5 C5         -9.2912   -1.8530    1.9474 C.ar      1 <1>        -0.0211
      6 C6         -9.6776   -0.5359    2.0834 C.ar      1 <1>         0.0021
      7 O7        -10.9951   -0.2329    2.2287 O.3       1 <1>        -0.4100
      8 C8        -11.3318    1.1492    2.3650 C.3       1 <1>         0.0272
      9 C9         -8.7350    0.4841    2.0741 C.ar      1 <1>        -0.0551
     10 C10        -7.3983    0.1706    1.9268 C.ar      1 <1>        -0.0722
     11 C11        -7.0077   -1.1504    1.7896 C.ar      1 <1>         0.0137
     12 S12        -5.4195   -1.9025    1.5855 S.3       1 <1>        -0.0400
     13 C13        -6.0465   -3.5579    1.5231 C.2       1 <1>         0.0356
     14 C14        -5.3102   -4.7256    1.3692 C.2       1 <1>        -0.0052
     15 C15        -3.9322   -4.6641    1.2447 C.2       1 <1>         0.0316
     16 C16        -3.1334   -5.9310    1.0778 C.3       1 <1>         0.0211
     17 O17        -3.3660   -3.5860    1.2702 O.2       1 <1>        -0.5049
     18 H18        -7.4382   -5.4199    3.4783 H         1 <1>         0.0475
     19 H19        -8.8773   -4.3922    3.6815 H         1 <1>         0.0403
     20 H20        -9.0487   -6.0503    3.0575 H         1 <1>         0.0546
     21 H21        -7.7819   -5.4155    1.0226 H         1 <1>         0.1196
     22 H22        -9.2209   -4.3878    1.2258 H         1 <1>         0.1124
     23 H23       -10.0387   -2.6326    1.9571 H         1 <1>         0.1403
     24 H24       -11.0022    1.6924    1.4794 H         1 <1>         0.0929
     25 H25       -12.4116    1.2511    2.4729 H         1 <1>         0.1219
     26 H26       -10.8383    1.5581    3.2467 H         1 <1>         0.0929
     27 H27        -9.0448    1.5132    2.1807 H         1 <1>         0.1225
     28 H28        -6.6573    0.9562    1.9182 H         1 <1>         0.1520
     29 H29        -5.8122   -5.6816    1.3467 H         1 <1>         0.1085
     30 H30        -3.0363   -6.1621    0.0170 H         1 <1>         0.0764
     31 H31        -2.1429   -5.7958    1.5123 H         1 <1>         0.0692
     32 H32        -3.6430   -6.7512    1.5832 H         1 <1>         0.0692
@<TRIPOS>BOND
     1    1    2 1
     2    1   18 1
     3    1   19 1
     4    1   20 1
     5    2    3 1
     6    2   21 1
     7    2   22 1
     8    3   13 1
     9    3    4 1
    10    4   11 ar
    11    4    5 ar
    12    5    6 ar
    13    5   23 1
    14    6    7 1
    15    6    9 ar
    16    7    8 1
    17    8   24 1
    18    8   25 1
    19    8   26 1
    20    9   10 ar
    21    9   27 1
    22   10   11 ar
    23   10   28 1
    24   11   12 1
    25   12   13 1
    26   13   14 2
    27   14   15 1
    28   14   29 1
    29   15   16 1
    30   15   17 2
    31   16   30 1
    32   16   31 1
    33   16   32 1
@<TRIPOS>Similarity
1.0583
@<TRIPOS>ShapeSim
0.6504
@<TRIPOS>PharmSim
0.4078
# END
# Name:		CC1=CC=C(C2=CN3C=C(C)C=CC3=N2)C=C1
# Created and modified by SHAFTS on Sun Mar 21 16:57:45 2021

# 

@<TRIPOS>MOLECULE
CC1=CC=C(C2=CN3C=C(C)C=CC3=N2)C=C1
   31    33     0
SMALL
USER_CHARGE


@<TRIPOS>ATOM
      1 C1         -0.6581   -6.0681    0.8197 C.3       1 <1>           -nan
      2 C2         -1.9038   -5.2393    0.9995 C.ar      1 <1>           -nan
      3 C3         -1.8076   -3.8629    1.0961 C.ar      1 <1>           -nan
      4 C4         -2.9452   -3.0990    1.2614 C.ar      1 <1>           -nan
      5 C5         -4.1922   -3.7169    1.3304 C.ar      1 <1>           -nan
      6 C6         -5.4189   -2.9007    1.5076 C.2       1 <1>           -nan
      7 C7         -6.6907   -3.3806    1.5951 C.2       1 <1>           -nan
      8 N8         -7.5166   -2.3031    1.7526 N.pl3     1 <1>           -nan
      9 C9         -8.8706   -2.1938    1.8903 C.2       1 <1>           -nan
     10 C10        -9.4518   -0.9844    2.0334 C.2       1 <1>           -nan
     11 C11       -10.9478   -0.8843    2.1841 C.3       1 <1>           -nan
     12 C12        -8.6685    0.1818    2.0431 C.2       1 <1>           -nan
     13 C13        -7.3186    0.0879    1.9070 C.2       1 <1>           -nan
     14 C14        -6.7255   -1.1828    1.7577 C.2       1 <1>           -nan
     15 N15        -5.4648   -1.5633    1.6148 N.2       1 <1>           -nan
     16 C16        -4.2832   -5.1037    1.2322 C.ar      1 <1>           -nan
     17 C17        -3.1396   -5.8575    1.0618 C.ar      1 <1>           -nan
     18 H18        -0.4503   -6.1857   -0.2438 H         1 <1>           -nan
     19 H19         0.1830   -5.5692    1.3012 H         1 <1>           -nan
     20 H20        -0.8058   -7.0490    1.2716 H         1 <1>           -nan
     21 H21        -0.8406   -3.3850    1.0424 H         1 <1>           -nan
     22 H22        -2.8690   -2.0244    1.3373 H         1 <1>           -nan
     23 H23        -6.9902   -4.4173    1.5487 H         1 <1>           -nan
     24 H24        -9.4824   -3.0838    1.8842 H         1 <1>           -nan
     25 H25       -11.2108   -0.9339    3.2407 H         1 <1>           -nan
     26 H26       -11.2924    0.0624    1.7680 H         1 <1>           -nan
     27 H27       -11.4225   -1.7090    1.6524 H         1 <1>           -nan
     28 H28        -9.1362    1.1484    2.1578 H         1 <1>           -nan
     29 H29        -6.7067    0.9779    1.9126 H         1 <1>           -nan
     30 H30        -5.2473   -5.5878    1.2854 H         1 <1>           -nan
     31 H31        -3.2090   -6.9326    0.9856 H         1 <1>           -nan
@<TRIPOS>BOND
     1    1    2 1
     2    1   18 1
     3    1   19 1
     4    1   20 1
     5    2   17 ar
     6    2    3 ar
     7    3    4 ar
     8    3   21 1
     9    4    5 ar
    10    4   22 1
    11    5    6 1
    12    5   16 ar
    13    6   15 1
    14    6    7 2
    15    7    8 1
    16    7   23 1
    17    8   14 1
    18    8    9 1
    19    9   10 2
    20    9   24 1
    21   10   11 1
    22   10   12 1
    23   11   25 1
    24   11   26 1
    25   11   27 1
    26   12   13 2
    27   12   28 1
    28   13   14 1
    29   13   29 1
    30   14   15 2
    31   16   17 ar
    32   16   30 1
    33   17   31 1
@<TRIPOS>Similarity
1.0582
@<TRIPOS>ShapeSim
0.7343
@<TRIPOS>PharmSim
0.3239
# END
# Name:		COC1=CC2=C(C(C=CN=C3C(F)(F)F)=C3N2CCCCN)C=C1
# Created and modified by SHAFTS on Sun Mar 21 16:57:45 2021

# 

@<TRIPOS>MOLECULE
COC1=CC2=C(C(C=CN=C3C(F)(F)F)=C3N2CCCCN)C=C1
   43    45     0
SMALL
USER_CHARGE


@<TRIPOS>ATOM
      1 C1        -10.3046    2.3167    2.3623 C.3       1 <1>         0.0275
      2 O2         -8.9017    2.0906    2.2121 O.3       1 <1>        -0.4108
      3 C3         -8.4958    0.8011    2.0755 C.ar      1 <1>         0.0001
      4 C4         -7.1503    0.5160    1.9321 C.ar      1 <1>        -0.0181
      5 C5         -6.7293   -0.8022    1.7919 C.ar      1 <1>        -0.0278
      6 C6         -7.6818   -1.8339    1.7983 C.ar      1 <1>        -0.0338
      7 C7         -9.0355   -1.5336    1.9441 C.ar      1 <1>        -0.0754
      8 C8         -9.4365   -0.2246    2.0867 C.ar      1 <1>        -0.0579
      9 C9         -6.9351   -3.0903    1.6335 C.ar      1 <1>        -0.0243
     10 C10        -5.5770   -2.7406    1.5375 C.ar      1 <1>         0.0196
     11 C11        -4.6416   -3.7551    1.3744 C.ar      1 <1>         0.1300
     12 C12        -3.1780   -3.4121    1.2683 C.3       1 <1>         0.3883
     13 F13        -2.7331   -2.8849    2.4854 F         1 <1>        -0.1748
     14 F14        -2.4490   -4.5673    0.9661 F         1 <1>        -0.1638
     15 F15        -2.9931   -2.4656    0.2547 F         1 <1>        -0.1802
     16 N16        -5.0236   -5.0142    1.3120 N.ar      1 <1>        -0.3591
     17 C17        -6.2916   -5.3759    1.3989 C.ar      1 <1>        -0.0188
     18 C18        -7.2884   -4.4375    1.5613 C.ar      1 <1>        -0.0384
     19 N19        -5.4756   -1.3653    1.6348 N.pl3     1 <1>        -0.3561
     20 C20        -4.2203   -0.6122    1.5789 C.3       1 <1>        -0.0123
     21 C21        -3.9930   -0.1047    0.1534 C.3       1 <1>        -0.0448
     22 C22        -2.6216    0.5678    0.0642 C.3       1 <1>        -0.0745
     23 C23        -2.3943    1.0752   -1.3612 C.3       1 <1>        -0.1199
     24 N24        -1.0777    1.7209   -1.4471 N.4       1 <1>         0.4444
     25 H25        -1.0413    2.4975   -0.8038 H         1 <1>         0.1474
     26 H26        -0.3594    1.0533   -1.2092 H         1 <1>         0.1474
     27 H27        -0.9277    2.0555   -2.3871 H         1 <1>         0.1474
     28 H28       -10.8299    1.9356    1.4866 H         1 <1>         0.0911
     29 H29       -10.6624    1.8012    3.2535 H         1 <1>         0.0911
     30 H30       -10.4918    3.3860    2.4614 H         1 <1>         0.1273
     31 H31        -6.4262    1.3173    1.9285 H         1 <1>         0.1319
     32 H32        -9.7681   -2.3272    1.9491 H         1 <1>         0.1516
     33 H33       -10.4852    0.0078    2.2000 H         1 <1>         0.1177
     34 H34        -6.5510   -6.4227    1.3418 H         1 <1>         0.2136
     35 H35        -8.3228   -4.7399    1.6316 H         1 <1>         0.1574
     36 H36        -4.2744    0.2355    2.2620 H         1 <1>         0.1191
     37 H37        -3.3940   -1.2609    1.8697 H         1 <1>         0.1191
     38 H38        -4.0322   -0.9436   -0.5414 H         1 <1>         0.0649
     39 H39        -4.7688    0.6165   -0.1035 H         1 <1>         0.0578
     40 H40        -2.5823    1.4067    0.7590 H         1 <1>         0.0571
     41 H41        -1.8458   -0.1534    0.3211 H         1 <1>         0.0571
     42 H42        -2.4336    0.2363   -2.0562 H         1 <1>         0.0910
     43 H43        -3.1701    1.7964   -1.6183 H         1 <1>         0.0910
@<TRIPOS>BOND
     1    1    2 1
     2    1   28 1
     3    1   29 1
     4    1   30 1
     5    2    3 1
     6    3    8 ar
     7    3    4 ar
     8    4    5 ar
     9    4   31 1
    10    5   19 1
    11    5    6 ar
    12    6    7 ar
    13    6    9 1
    14    7    8 ar
    15    7   32 1
    16    8   33 1
    17    9   18 ar
    18    9   10 ar
    19   10   11 ar
    20   10   19 1
    21   11   12 1
    22   11   16 ar
    23   12   13 1
    24   12   14 1
    25   12   15 1
    26   16   17 ar
    27   17   18 ar
    28   17   34 1
    29   18   35 1
    30   19   20 1
    31   20   21 1
    32   20   36 1
    33   20   37 1
    34   21   22 1
    35   21   38 1
    36   21   39 1
    37   22   23 1
    38   22   40 1
    39   22   41 1
    40   23   24 1
    41   23   42 1
    42   23   43 1
    43   24   25 1
    44   24   26 1
    45   24   27 1
@<TRIPOS>Similarity
1.0579
@<TRIPOS>ShapeSim
0.6490
@<TRIPOS>PharmSim
0.4089
# END
# Name:		CC(C1=C(N=C2C=C(C=CC2=C1)F)C3=CC=CC=N3)NC4=NC=NC5=C4NC=N5
# Created and modified by SHAFTS on Sun Mar 21 16:57:45 2021

# 

@<TRIPOS>MOLECULE
CC(C1=C(N=C2C=C(C=CC2=C1)F)C3=CC=CC=N3)NC4=NC=NC5=C4NC=N5
   45    49     0
SMALL
USER_CHARGE


@<TRIPOS>ATOM
      1 C1         -4.4564   -4.7812    3.1174 C.3       1 <1>        -0.0376
      2 C2         -4.4707   -3.9644    1.8237 C.3       1 <1>         0.0040
      3 H3         -4.4254   -4.6382    0.9681 H         1 <1>         0.1764
      4 N4         -3.3134   -3.0666    1.8001 N.pl3     1 <1>        -0.3558
      5 C5         -2.0745   -3.5437    1.4033 C.ar      1 <1>         0.0345
      6 C6         -0.9601   -2.7034    1.3806 C.ar      1 <1>         0.0598
      7 N7         -0.7268   -1.3772    1.6777 N.pl3     1 <1>        -0.3264
      8 C8          0.5855   -1.1425    1.4522 C.2       1 <1>         0.0256
      9 N9          1.1711   -2.2315    1.0382 N.2       1 <1>        -0.3324
     10 C10         0.2746   -3.2338    0.9712 C.ar      1 <1>         0.0500
     11 N11         0.3340   -4.5221    0.6198 N.ar      1 <1>        -0.3324
     12 C12        -0.7426   -5.2757    0.6575 C.ar      1 <1>         0.0463
     13 N13        -1.9192   -4.8145    1.0406 N.ar      1 <1>        -0.3277
     14 C14        -5.7382   -3.1519    1.7566 C.ar      1 <1>        -0.0130
     15 C15        -6.9413   -3.7571    1.3645 C.ar      1 <1>         0.0469
     16 C16        -6.9480   -5.1997    1.0188 C.ar      1 <1>         0.0307
     17 C17        -8.1144   -5.9433    1.1811 C.ar      1 <1>        -0.0435
     18 C18        -8.1055   -7.2890    0.8538 C.ar      1 <1>        -0.0845
     19 C19        -6.9290   -7.8459    0.3747 C.ar      1 <1>        -0.0680
     20 C20        -5.8069   -7.0478    0.2386 C.ar      1 <1>        -0.0324
     21 N21        -5.8442   -5.7696    0.5525 N.ar      1 <1>        -0.3749
     22 N22        -8.0672   -3.0729    1.2964 N.ar      1 <1>        -0.3517
     23 C23        -8.1073   -1.7730    1.5985 C.ar      1 <1>        -0.0084
     24 C24        -9.3111   -1.0499    1.5242 C.ar      1 <1>         0.0018
     25 C25        -9.3235    0.2763    1.8384 C.ar      1 <1>         0.0819
     26 F26       -10.4829    0.9662    1.7660 F         1 <1>        -0.2598
     27 C27        -8.1568    0.9325    2.2346 C.ar      1 <1>        -0.0370
     28 C28        -6.9738    0.2644    2.3173 C.ar      1 <1>        -0.0721
     29 C29        -6.9240   -1.1030    2.0013 C.ar      1 <1>        -0.0423
     30 C30        -5.7193   -1.8274    2.0825 C.ar      1 <1>        -0.0573
     31 H31        -5.3176   -5.4491    3.1349 H         1 <1>         0.0462
     32 H32        -3.5397   -5.3688    3.1659 H         1 <1>         0.0534
     33 H33        -4.5017   -4.1074    3.9730 H         1 <1>         0.0391
     34 H34        -3.4143   -2.1381    2.0622 H         1 <1>         0.2984
     35 H35        -1.3817   -0.7332    1.9898 H         1 <1>         0.3362
     36 H36         1.0772   -0.1914    1.5944 H         1 <1>         0.3086
     37 H37        -0.6609   -6.3127    0.3673 H         1 <1>         0.3023
     38 H38        -9.0132   -5.4772    1.5572 H         1 <1>         0.1394
     39 H39        -8.9945   -7.8913    0.9692 H         1 <1>         0.1366
     40 H40        -6.8891   -8.8924    0.1109 H         1 <1>         0.1288
     41 H41        -4.8891   -7.4782   -0.1340 H         1 <1>         0.2112
     42 H42       -10.2219   -1.5432    1.2191 H         1 <1>         0.1570
     43 H43        -8.1931    1.9840    2.4784 H         1 <1>         0.1442
     44 H44        -6.0779    0.7832    2.6250 H         1 <1>         0.1415
     45 H45        -4.8030   -1.3459    2.3904 H         1 <1>         0.1463
@<TRIPOS>BOND
     1    1    2 1
     2    1   31 1
     3    1   32 1
     4    1   33 1
     5    2    3 1
     6    2    4 1
     7    2   14 1
     8    4    5 1
     9    4   34 1
    10    5   13 ar
    11    5    6 ar
    12    6   10 ar
    13    6    7 1
    14    7    8 1
    15    7   35 1
    16    8    9 2
    17    8   36 1
    18    9   10 1
    19   10   11 ar
    20   11   12 ar
    21   12   13 ar
    22   12   37 1
    23   14   30 ar
    24   14   15 ar
    25   15   16 1
    26   15   22 ar
    27   16   21 ar
    28   16   17 ar
    29   17   18 ar
    30   17   38 1
    31   18   19 ar
    32   18   39 1
    33   19   20 ar
    34   19   40 1
    35   20   21 ar
    36   20   41 1
    37   22   23 ar
    38   23   29 ar
    39   23   24 ar
    40   24   25 ar
    41   24   42 1
    42   25   26 1
    43   25   27 ar
    44   27   28 ar
    45   27   43 1
    46   28   29 ar
    47   28   44 1
    48   29   30 ar
    49   30   45 1
@<TRIPOS>Similarity
1.0568
@<TRIPOS>ShapeSim
0.7549
@<TRIPOS>PharmSim
0.3019
# END
# Name:		CC1=CC=C(C=C1)C(=O)NC2=NN=C(S2)S(=O)(=O)N(C)CC3=CC=CO3
# Created and modified by SHAFTS on Sun Mar 21 16:57:45 2021

# 

@<TRIPOS>MOLECULE
CC1=CC=C(C=C1)C(=O)NC2=NN=C(S2)S(=O)(=O)N(C)CC3=CC=CO3
   42    44     0
SMALL
USER_CHARGE


@<TRIPOS>ATOM
      1 C1         -9.3089   -0.5042    2.0501 C.3       1 <1>        -0.0387
      2 C2         -8.0283   -1.2790    1.8740 C.ar      1 <1>        -0.1114
      3 C3         -8.0661   -2.6585    1.7737 C.ar      1 <1>        -0.0902
      4 C4         -6.8976   -3.3738    1.6129 C.ar      1 <1>        -0.0653
      5 C5         -5.6750   -2.7027    1.5509 C.ar      1 <1>         0.0267
      6 C6         -4.4192   -3.4626    1.3783 C.2       1 <1>         0.1476
      7 O7         -4.4493   -4.6745    1.2899 O.2       1 <1>        -0.4273
      8 N8         -3.2405   -2.8116    1.3188 N.am      1 <1>        -0.2396
      9 C9         -2.0596   -3.5261    1.1565 C.2       1 <1>         0.1517
     10 N10        -1.9531   -4.8188    1.0438 N.2       1 <1>        -0.2251
     11 N11        -0.7964   -5.3004    0.9022 N.2       1 <1>        -0.1824
     12 C12         0.2036   -4.4794    0.8787 C.2       1 <1>         0.5051
     13 S13         1.9003   -4.9161    0.6916 S.o2      1 <1>         0.0093
     14 O14         2.1271   -5.0562   -0.7042 O.2       1 <1>        -0.0655
     15 O15         2.6379   -4.0214    1.5129 O.2       1 <1>        -0.0655
     16 N16         2.0941   -6.4231    1.3503 N.am      1 <1>        -0.1449
     17 C17         1.9206   -7.6149    0.5163 C.3       1 <1>         0.0429
     18 C18         2.4391   -6.5643    2.7670 C.3       1 <1>         0.0911
     19 C19         1.1817   -6.7679    3.5724 C.2       1 <1>         0.0010
     20 C20         0.6198   -7.9539    3.8673 C.2       1 <1>        -0.0941
     21 C21        -0.5358   -7.6803    4.6347 C.2       1 <1>        -0.0977
     22 C22        -0.6108   -6.3433    4.7627 C.2       1 <1>        -0.0070
     23 O23         0.4352   -5.7962    4.1222 O.3       1 <1>        -0.3913
     24 S24        -0.4347   -2.8439    1.0584 S.3       1 <1>         0.1271
     25 C25        -5.6440   -1.3107    1.6524 C.ar      1 <1>        -0.0734
     26 C26        -6.8205   -0.6072    1.8077 C.ar      1 <1>        -0.0969
     27 H27        -9.7140   -0.2448    1.0720 H         1 <1>         0.0636
     28 H28       -10.0312   -1.1145    2.5923 H         1 <1>         0.0564
     29 H29        -9.1077    0.4070    2.6134 H         1 <1>         0.0564
     30 H30        -9.0127   -3.1764    1.8219 H         1 <1>         0.1298
     31 H31        -6.9285   -4.4505    1.5355 H         1 <1>         0.1458
     32 H32        -3.2164   -1.8445    1.3894 H         1 <1>         0.3596
     33 H33         2.8763   -7.8874    0.0686 H         1 <1>         0.0951
     34 H34         1.5592   -8.4392    1.1312 H         1 <1>         0.1023
     35 H35         1.1970   -7.4049   -0.2715 H         1 <1>         0.1023
     36 H36         3.0968   -7.4239    2.8969 H         1 <1>         0.1686
     37 H37         2.9475   -5.6629    3.1089 H         1 <1>         0.1541
     38 H38         0.9815   -8.9283    3.5737 H         1 <1>         0.1206
     39 H39        -1.2259   -8.4054    5.0399 H         1 <1>         0.1147
     40 H40        -1.3796   -5.8019    5.2940 H         1 <1>         0.2129
     41 H41        -4.7015   -0.7856    1.6052 H         1 <1>         0.1306
     42 H42        -6.7980    0.4697    1.8860 H         1 <1>         0.1209
@<TRIPOS>BOND
     1    1    2 1
     2    1   27 1
     3    1   28 1
     4    1   29 1
     5    2   26 ar
     6    2    3 ar
     7    3    4 ar
     8    3   30 1
     9    4    5 ar
    10    4   31 1
    11    5    6 1
    12    5   25 ar
    13    6    7 2
    14    6    8 am
    15    8    9 1
    16    8   32 1
    17    9   24 1
    18    9   10 2
    19   10   11 1
    20   11   12 2
    21   12   13 1
    22   12   24 1
    23   13   14 2
    24   13   15 2
    25   13   16 am
    26   16   17 1
    27   16   18 1
    28   17   33 1
    29   17   34 1
    30   17   35 1
    31   18   19 1
    32   18   36 1
    33   18   37 1
    34   19   23 1
    35   19   20 2
    36   20   21 1
    37   20   38 1
    38   21   22 2
    39   21   39 1
    40   22   23 1
    41   22   40 1
    42   25   26 ar
    43   25   41 1
    44   26   42 1
@<TRIPOS>Similarity
1.0546
@<TRIPOS>ShapeSim
0.7059
@<TRIPOS>PharmSim
0.3488
# END
# Name:		NC1=C(C(OC)=O)SC(C2=CC=CS2)=C1
# Created and modified by SHAFTS on Sun Mar 21 16:57:45 2021

# 

@<TRIPOS>MOLECULE
NC1=C(C(OC)=O)SC(C2=CC=CS2)=C1
   24    25     0
SMALL
USER_CHARGE


@<TRIPOS>ATOM
      1 C1         -2.3869   -4.6062    1.0991 C.3       1 <1>         0.0343
      2 O2         -3.3752   -3.5878    1.2677 O.3       1 <1>        -0.3558
      3 C3         -4.6613   -3.9903    1.3561 C.2       1 <1>         0.1686
      4 O4         -4.9343   -5.1754    1.2916 O.2       1 <1>        -0.4679
      5 C5         -5.6876   -3.0387    1.5230 C.2       1 <1>         0.1127
      6 C6         -7.0294   -3.3295    1.6306 C.2       1 <1>        -0.0550
      7 N7         -7.5254   -4.6295    1.5848 N.pl3     1 <1>        -0.3965
      8 C8         -7.8375   -2.2298    1.7873 C.2       1 <1>        -0.0389
      9 C9         -7.1776   -1.0341    1.8104 C.2       1 <1>         0.0109
     10 C10        -7.8173    0.2800    1.9671 C.2       1 <1>        -0.0101
     11 C11        -7.1658    1.4762    1.9855 C.2       1 <1>        -0.0902
     12 C12        -7.9875    2.5700    2.1447 C.2       1 <1>        -0.0998
     13 C13        -9.2907    2.2916    2.2561 C.2       1 <1>        -0.0392
     14 S14        -9.5445    0.5549    2.1528 S.3       1 <1>        -0.1080
     15 S15        -5.4491   -1.3003    1.6333 S.3       1 <1>        -0.0533
     16 H16        -1.3993   -4.1483    1.0426 H         1 <1>         0.1225
     17 H17        -2.4220   -5.2905    1.9469 H         1 <1>         0.0936
     18 H18        -2.5855   -5.1566    0.1795 H         1 <1>         0.0936
     19 H19        -6.9174   -5.3770    1.4730 H         1 <1>         0.2808
     20 H20        -8.4791   -4.7878    1.6647 H         1 <1>         0.2652
     21 H21        -8.9105   -2.3048    1.8844 H         1 <1>         0.1370
     22 H22        -6.0938    1.5599    1.8843 H         1 <1>         0.1366
     23 H23        -7.6066    3.5802    2.1775 H         1 <1>         0.1302
     24 H24       -10.0722    3.0255    2.3866 H         1 <1>         0.1489
@<TRIPOS>BOND
     1    1    2 1
     2    1   16 1
     3    1   17 1
     4    1   18 1
     5    2    3 1
     6    3    4 2
     7    3    5 1
     8    5   15 1
     9    5    6 2
    10    6    7 1
    11    6    8 1
    12    7   19 1
    13    7   20 1
    14    8    9 2
    15    8   21 1
    16    9   10 1
    17    9   15 1
    18   10   14 1
    19   10   11 2
    20   11   12 1
    21   11   22 1
    22   12   13 2
    23   12   23 1
    24   13   14 1
    25   13   24 1
@<TRIPOS>Similarity
1.0544
@<TRIPOS>ShapeSim
0.6612
@<TRIPOS>PharmSim
0.3932
# END
# Name:		CC1=CC(NC2=NC(C3=CC=CC=C3)=NC4=C2C=CC=C4)=NN1
# Created and modified by SHAFTS on Sun Mar 21 16:57:45 2021

# 

@<TRIPOS>MOLECULE
CC1=CC(NC2=NC(C3=CC=CC=C3)=NC4=C2C=CC=C4)=NN1
   38    41     0
SMALL
USER_CHARGE


@<TRIPOS>ATOM
      1 C1         -5.9618   -8.4888    0.5253 C.3       1 <1>        -0.0150
      2 C2         -7.0618   -7.5391    0.9241 C.2       1 <1>        -0.0660
      3 C3         -6.9447   -6.1991    1.0642 C.2       1 <1>        -0.0280
      4 C4         -8.1988   -5.6946    1.4446 C.2       1 <1>         0.0241
      5 N5         -8.5044   -4.3503    1.6916 N.pl3     1 <1>        -0.2808
      6 C6         -7.5045   -3.4004    1.6687 C.ar      1 <1>         0.0475
      7 C7         -7.8085   -2.0222    1.7992 C.ar      1 <1>         0.0260
      8 C8         -9.1205   -1.5636    1.9558 C.ar      1 <1>        -0.0733
      9 C9         -9.3552   -0.2251    2.0773 C.ar      1 <1>        -0.0932
     10 C10        -8.3069    0.6902    2.0471 C.ar      1 <1>        -0.0814
     11 C11        -7.0170    0.2763    1.8954 C.ar      1 <1>        -0.0459
     12 C12        -6.7396   -1.0924    1.7687 C.ar      1 <1>        -0.0074
     13 N13        -5.4896   -1.5504    1.6181 N.ar      1 <1>        -0.3553
     14 C14        -5.2617   -2.8455    1.5017 C.ar      1 <1>         0.0513
     15 C15        -3.8628   -3.3088    1.3369 C.ar      1 <1>         0.0085
     16 C16        -3.5789   -4.6725    1.2858 C.ar      1 <1>        -0.0629
     17 C17        -2.2750   -5.0978    1.1317 C.ar      1 <1>        -0.0956
     18 C18        -1.2508   -4.1737    1.0284 C.ar      1 <1>        -0.1031
     19 C19        -1.5268   -2.8191    1.0784 C.ar      1 <1>        -0.0956
     20 C20        -2.8273   -2.3820    1.2264 C.ar      1 <1>        -0.0629
     21 N21        -6.2352   -3.7533    1.5295 N.ar      1 <1>        -0.3217
     22 N22        -9.0346   -6.7031    1.5279 N.2       1 <1>        -0.3358
     23 N23        -8.3400   -7.8742    1.1989 N.pl3     1 <1>        -0.3264
     24 H24        -5.9436   -8.5886   -0.5600 H         1 <1>         0.0765
     25 H25        -5.0036   -8.1006    0.8706 H         1 <1>         0.0837
     26 H26        -6.1426   -9.4644    0.9767 H         1 <1>         0.0694
     27 H27        -6.0461   -5.6200    0.9111 H         1 <1>         0.1482
     28 H28        -9.4191   -4.0874    1.8789 H         1 <1>         0.3583
     29 H29        -9.9422   -2.2641    1.9800 H         1 <1>         0.1318
     30 H30       -10.3682    0.1291    2.1982 H         1 <1>         0.1209
     31 H31        -8.5189    1.7447    2.1450 H         1 <1>         0.1408
     32 H32        -6.2137    0.9978    1.8737 H         1 <1>         0.1453
     33 H33        -4.3775   -5.3949    1.3672 H         1 <1>         0.1443
     34 H34        -2.0538   -6.1542    1.0921 H         1 <1>         0.1199
     35 H35        -0.2320   -4.5111    0.9086 H         1 <1>         0.1237
     36 H36        -0.7232   -2.1020    0.9972 H         1 <1>         0.1199
     37 H37        -3.0417   -1.3242    1.2653 H         1 <1>         0.1443
     38 H38        -8.7115   -8.7700    1.1775 H         1 <1>         0.3759
@<TRIPOS>BOND
     1    1    2 1
     2    1   24 1
     3    1   25 1
     4    1   26 1
     5    2   23 1
     6    2    3 2
     7    3    4 1
     8    3   27 1
     9    4    5 1
    10    4   22 2
    11    5    6 1
    12    5   28 1
    13    6   21 ar
    14    6    7 ar
    15    7   12 ar
    16    7    8 ar
    17    8    9 ar
    18    8   29 1
    19    9   10 ar
    20    9   30 1
    21   10   11 ar
    22   10   31 1
    23   11   12 ar
    24   11   32 1
    25   12   13 ar
    26   13   14 ar
    27   14   15 1
    28   14   21 ar
    29   15   20 ar
    30   15   16 ar
    31   16   17 ar
    32   16   33 1
    33   17   18 ar
    34   17   34 1
    35   18   19 ar
    36   18   35 1
    37   19   20 ar
    38   19   36 1
    39   20   37 1
    40   22   23 1
    41   23   38 1
@<TRIPOS>Similarity
1.0534
@<TRIPOS>ShapeSim
0.6600
@<TRIPOS>PharmSim
0.3934
# END
# Name:		O=C1C[C@@H](C2=CC=CC=C2)OC3=CC(O)=CC(OC)=C13
# Created and modified by SHAFTS on Sun Mar 21 16:57:45 2021

# 

@<TRIPOS>MOLECULE
O=C1C[C@@H](C2=CC=CC=C2)OC3=CC(O)=CC(OC)=C13
   34    36     0
SMALL
USER_CHARGE


@<TRIPOS>ATOM
      1 C1        -11.7386   -1.5410    1.8559 C.3       1 <1>         0.0352
      2 O2        -10.4858   -2.2086    1.6919 O.3       1 <1>        -0.3960
      3 C3         -9.3655   -1.4540    1.8134 C.ar      1 <1>         0.0247
      4 C4         -9.4626   -0.1021    2.0901 C.ar      1 <1>        -0.0255
      5 C5         -8.3122    0.6678    2.2120 C.ar      1 <1>        -0.0214
      6 O6         -8.4169    1.9923    2.4864 O.3       1 <1>        -0.4247
      7 C7         -7.0564    0.0952    2.0563 C.ar      1 <1>        -0.0109
      8 C8         -6.9364   -1.2549    1.7779 C.ar      1 <1>         0.0362
      9 C9         -8.0986   -2.0403    1.6652 C.ar      1 <1>         0.0684
     10 C10        -7.9654   -3.4743    1.3854 C.2       1 <1>         0.0871
     11 O11        -8.9047   -4.2354    1.4938 O.2       1 <1>        -0.4551
     12 C12        -6.5924   -3.9573    0.9539 C.3       1 <1>         0.0693
     13 C13        -5.5588   -3.2110    1.8100 C.3       1 <1>         0.0642
     14 H14        -5.7157   -3.4514    2.8615 H         1 <1>         0.1406
     15 C15        -4.1702   -3.6294    1.4003 C.ar      1 <1>        -0.0681
     16 C16        -3.5429   -3.0001    0.3413 C.ar      1 <1>        -0.0902
     17 C17        -2.2692   -3.3837   -0.0346 C.ar      1 <1>        -0.1009
     18 C18        -1.6225   -4.3965    0.6489 C.ar      1 <1>        -0.1046
     19 C19        -2.2494   -5.0252    1.7085 C.ar      1 <1>        -0.1025
     20 C20        -3.5215   -4.6385    2.0870 C.ar      1 <1>        -0.0923
     21 O21        -5.7102   -1.8060    1.6197 O.3       1 <1>        -0.3825
     22 H22       -11.8323   -0.7549    1.1066 H         1 <1>         0.0931
     23 H23       -12.5509   -2.2576    1.7342 H         1 <1>         0.1292
     24 H24       -11.7883   -1.1012    2.8521 H         1 <1>         0.0931
     25 H25       -10.4334    0.3554    2.2111 H         1 <1>         0.1158
     26 H26        -8.4204    2.1992    3.4310 H         1 <1>         0.3680
     27 H27        -6.1709    0.7058    2.1523 H         1 <1>         0.1385
     28 H28        -6.5072   -5.0311    1.1211 H         1 <1>         0.1028
     29 H29        -6.4338   -3.7313   -0.1006 H         1 <1>         0.1100
     30 H30        -4.0482   -2.2089   -0.1927 H         1 <1>         0.1288
     31 H31        -1.7795   -2.8926   -0.8624 H         1 <1>         0.1210
     32 H32        -0.6277   -4.6968    0.3549 H         1 <1>         0.1218
     33 H33        -1.7443   -5.8166    2.2422 H         1 <1>         0.1205
     34 H34        -4.0112   -5.1297    2.9148 H         1 <1>         0.1262
@<TRIPOS>BOND
     1    1    2 1
     2    1   22 1
     3    1   23 1
     4    1   24 1
     5    2    3 1
     6    3    9 ar
     7    3    4 ar
     8    4    5 ar
     9    4   25 1
    10    5    6 1
    11    5    7 ar
    12    6   26 1
    13    7    8 ar
    14    7   27 1
    15    8   21 1
    16    8    9 ar
    17    9   10 1
    18   10   11 2
    19   10   12 1
    20   12   13 1
    21   12   28 1
    22   12   29 1
    23   13   14 1
    24   13   15 1
    25   13   21 1
    26   15   20 ar
    27   15   16 ar
    28   16   17 ar
    29   16   30 1
    30   17   18 ar
    31   17   31 1
    32   18   19 ar
    33   18   32 1
    34   19   20 ar
    35   19   33 1
    36   20   34 1
@<TRIPOS>Similarity
1.0530
@<TRIPOS>ShapeSim
0.6897
@<TRIPOS>PharmSim
0.3634
# END
# Name:		COC1=C(C=CC(=C1)C=CC(=O)CC(=O)C=CC2=CC=C(C=C2)O)O
# Created and modified by SHAFTS on Sun Mar 21 16:57:45 2021

# 

@<TRIPOS>MOLECULE
COC1=C(C=CC(=C1)C=CC(=O)CC(=O)C=CC2=CC=C(C=C2)O)O
   43    44     0
SMALL
USER_CHARGE


@<TRIPOS>ATOM
      1 C1          3.8663   -8.4551    0.2227 C.3       1 <1>         0.0238
      2 O2          4.5574   -7.2049    0.2618 O.3       1 <1>        -0.4127
      3 C3          3.8007   -6.0858    0.4175 C.ar      1 <1>         0.0245
      4 C4          2.4298   -6.1910    0.5352 C.ar      1 <1>        -0.0509
      5 C5          1.6535   -5.0356    0.6955 C.ar      1 <1>        -0.0775
      6 C6          0.1949   -5.1403    0.8217 C.2       1 <1>        -0.0683
      7 C7         -0.5541   -4.0211    0.9766 C.2       1 <1>        -0.0224
      8 C8         -1.9531   -4.1215    1.0977 C.2       1 <1>         0.0763
      9 O9         -2.4891   -5.2110    1.0632 O.2       1 <1>        -0.4598
     10 C10        -2.7858   -2.8773    1.2699 C.3       1 <1>         0.1112
     11 C11        -4.2405   -3.2568    1.3747 C.2       1 <1>         0.0765
     12 O12        -4.5693   -4.4247    1.3151 O.2       1 <1>        -0.4586
     13 C13        -5.2184   -2.2579    1.5414 C.2       1 <1>        -0.0264
     14 C14        -6.5268   -2.5993    1.6356 C.2       1 <1>        -0.0738
     15 C15        -7.5465   -1.5578    1.8095 C.ar      1 <1>        -0.0797
     16 C16        -7.1706   -0.2097    1.8727 C.ar      1 <1>        -0.0871
     17 C17        -8.1307    0.7626    2.0354 C.ar      1 <1>        -0.0676
     18 C18        -9.4718    0.4090    2.1375 C.ar      1 <1>        -0.0408
     19 O19       -10.4145    1.3720    2.2982 O.3       1 <1>        -0.4385
     20 C20        -9.8505   -0.9276    2.0749 C.ar      1 <1>        -0.0660
     21 C21        -8.8994   -1.9078    1.9071 C.ar      1 <1>        -0.0850
     22 C22         2.2737   -3.7807    0.7353 C.ar      1 <1>        -0.0833
     23 C23         3.6426   -3.6857    0.6172 C.ar      1 <1>        -0.0550
     24 C24         4.4113   -4.8320    0.4640 C.ar      1 <1>         0.0084
     25 O25         5.7605   -4.7317    0.3484 O.3       1 <1>        -0.4249
     26 H26         3.3205   -8.5979    1.1554 H         1 <1>         0.0904
     27 H27         3.1655   -8.4569   -0.6122 H         1 <1>         0.0904
     28 H28         4.5856   -9.2641    0.0950 H         1 <1>         0.1194
     29 H29         1.9565   -7.1612    0.5034 H         1 <1>         0.1287
     30 H30        -0.2816   -6.1090    0.7909 H         1 <1>         0.1570
     31 H31        -0.0776   -3.0524    1.0072 H         1 <1>         0.1251
     32 H32        -2.4796   -2.3580    2.1780 H         1 <1>         0.1257
     33 H33        -2.6422   -2.2221    0.4108 H         1 <1>         0.1257
     34 H34        -4.9261   -1.2196    1.5944 H         1 <1>         0.1153
     35 H35        -6.8191   -3.6377    1.5827 H         1 <1>         0.1548
     36 H36        -6.1294    0.0659    1.7942 H         1 <1>         0.1302
     37 H37        -7.8421    1.8021    2.0842 H         1 <1>         0.1241
     38 H38       -10.7714    1.7155    1.4678 H         1 <1>         0.3624
     39 H39       -10.8935   -1.1966    2.1548 H         1 <1>         0.1246
     40 H40        -9.1947   -2.9455    1.8584 H         1 <1>         0.1328
     41 H41         1.6788   -2.8877    0.8584 H         1 <1>         0.1311
     42 H42         4.1199   -2.7174    0.6480 H         1 <1>         0.1400
     43 H43         6.2313   -4.7663    1.1924 H         1 <1>         0.3597
@<TRIPOS>BOND
     1    1    2 1
     2    1   26 1
     3    1   27 1
     4    1   28 1
     5    2    3 1
     6    3   24 ar
     7    3    4 ar
     8    4    5 ar
     9    4   29 1
    10    5    6 1
    11    5   22 ar
    12    6    7 2
    13    6   30 1
    14    7    8 1
    15    7   31 1
    16    8    9 2
    17    8   10 1
    18   10   11 1
    19   10   32 1
    20   10   33 1
    21   11   12 2
    22   11   13 1
    23   13   14 2
    24   13   34 1
    25   14   15 1
    26   14   35 1
    27   15   21 ar
    28   15   16 ar
    29   16   17 ar
    30   16   36 1
    31   17   18 ar
    32   17   37 1
    33   18   19 1
    34   18   20 ar
    35   19   38 1
    36   20   21 ar
    37   20   39 1
    38   21   40 1
    39   22   23 ar
    40   22   41 1
    41   23   24 ar
    42   23   42 1
    43   24   25 1
    44   25   43 1
@<TRIPOS>Similarity
1.0520
@<TRIPOS>ShapeSim
0.7395
@<TRIPOS>PharmSim
0.3125
# END
# Name:		O=C1NC(CCC(N[C@H](CO)CC2=CC=CC=C2)=O)=NC3=CC=CC=C31
# Created and modified by SHAFTS on Sun Mar 21 16:57:45 2021

# 

@<TRIPOS>MOLECULE
O=C1NC(CCC(N[C@H](CO)CC2=CC=CC=C2)=O)=NC3=CC=CC=C31
   47    49     0
SMALL
USER_CHARGE


@<TRIPOS>ATOM
      1 O1         -2.0052   -4.8045    1.0494 O.2       1 <1>        -0.5048
      2 C2         -2.0047   -3.5954    1.1451 C.2       1 <1>         0.0687
      3 C3         -3.3042   -2.8532    1.3224 C.3       1 <1>         0.0740
      4 C4         -4.4628   -3.8522    1.3489 C.3       1 <1>         0.0582
      5 C5         -5.7622   -3.1099    1.5262 C.2       1 <1>         0.0197
      6 N6         -5.7242   -1.8155    1.6199 N.2       1 <1>        -0.3653
      7 C7         -6.8532   -1.0806    1.7802 C.ar      1 <1>        -0.0103
      8 C8         -6.8132    0.3112    1.8806 C.ar      1 <1>        -0.0509
      9 C9         -7.9845    1.0171    2.0423 C.ar      1 <1>        -0.0831
     10 C10        -9.2068    0.3620    2.1069 C.ar      1 <1>        -0.0907
     11 C11        -9.2719   -1.0112    2.0107 C.ar      1 <1>        -0.0645
     12 C12        -8.0987   -1.7440    1.8464 C.ar      1 <1>         0.0493
     13 C13        -8.1064   -3.2106    1.7384 C.2       1 <1>         0.1256
     14 O14        -9.1452   -3.8429    1.7884 O.2       1 <1>        -0.4676
     15 N15        -6.9138   -3.8292    1.5742 N.am      1 <1>        -0.2641
     16 N16        -0.8416   -2.9161    1.0986 N.am      1 <1>        -0.3460
     17 C17         0.4221   -3.6382    0.9323 C.3       1 <1>        -0.0047
     18 H18         0.2655   -4.5004    0.2840 H         1 <1>         0.1334
     19 C19         0.9227   -4.1116    2.2984 C.3       1 <1>        -0.0101
     20 O20         1.2388   -2.9779    3.1089 O.3       1 <1>        -0.4910
     21 C21         1.4615   -2.7088    0.3023 C.3       1 <1>        -0.0122
     22 C22         1.0263   -2.3405   -1.0926 C.ar      1 <1>        -0.1062
     23 C23         1.4082   -3.1242   -2.1654 C.ar      1 <1>        -0.1067
     24 C24         1.0089   -2.7864   -3.4450 C.ar      1 <1>        -0.1101
     25 C25         0.2273   -1.6651   -3.6517 C.ar      1 <1>        -0.1109
     26 C26        -0.1554   -0.8819   -2.5789 C.ar      1 <1>        -0.1086
     27 C27         0.2403   -1.2222   -1.2988 C.ar      1 <1>        -0.1047
     28 H28        -3.2810   -2.2988    2.2607 H         1 <1>         0.1154
     29 H29        -3.4421   -2.1589    0.4935 H         1 <1>         0.1154
     30 H30        -4.4860   -4.4066    0.4107 H         1 <1>         0.1205
     31 H31        -4.3248   -4.5465    2.1777 H         1 <1>         0.1205
     32 H32        -5.8683    0.8317    1.8320 H         1 <1>         0.1439
     33 H33        -7.9517    2.0938    2.1201 H         1 <1>         0.1403
     34 H34       -10.1144    0.9334    2.2341 H         1 <1>         0.1196
     35 H35       -10.2256   -1.5155    2.0622 H         1 <1>         0.1465
     36 H36        -6.8802   -4.7957    1.4989 H         1 <1>         0.3459
     37 H37        -0.8413   -1.9491    1.1751 H         1 <1>         0.2997
     38 H38         0.1460   -4.7012    2.7855 H         1 <1>         0.0846
     39 H39         1.8147   -4.7239    2.1663 H         1 <1>         0.0918
     40 H40         1.5632   -3.2036    3.9914 H         1 <1>         0.3214
     41 H41         1.5533   -1.8050    0.9048 H         1 <1>         0.0872
     42 H42         2.4251   -3.2167    0.2602 H         1 <1>         0.0872
     43 H43         2.0188   -4.0003   -2.0038 H         1 <1>         0.1130
     44 H44         1.3079   -3.3983   -4.2832 H         1 <1>         0.1116
     45 H45        -0.0841   -1.4007   -4.6516 H         1 <1>         0.1115
     46 H46        -0.7657   -0.0057   -2.7405 H         1 <1>         0.1120
     47 H47        -0.0587   -0.6102   -0.4606 H         1 <1>         0.1156
@<TRIPOS>BOND
     1    1    2 2
     2    2    3 1
     3    2   16 am
     4    3    4 1
     5    3   28 1
     6    3   29 1
     7    4    5 1
     8    4   30 1
     9    4   31 1
    10    5   15 1
    11    5    6 2
    12    6    7 1
    13    7   12 ar
    14    7    8 ar
    15    8    9 ar
    16    8   32 1
    17    9   10 ar
    18    9   33 1
    19   10   11 ar
    20   10   34 1
    21   11   12 ar
    22   11   35 1
    23   12   13 1
    24   13   14 2
    25   13   15 am
    26   15   36 1
    27   16   17 1
    28   16   37 1
    29   17   18 1
    30   17   19 1
    31   17   21 1
    32   19   20 1
    33   19   38 1
    34   19   39 1
    35   20   40 1
    36   21   22 1
    37   21   41 1
    38   21   42 1
    39   22   27 ar
    40   22   23 ar
    41   23   24 ar
    42   23   43 1
    43   24   25 ar
    44   24   44 1
    45   25   26 ar
    46   25   45 1
    47   26   27 ar
    48   26   46 1
    49   27   47 1
@<TRIPOS>Similarity
1.0506
@<TRIPOS>ShapeSim
0.7296
@<TRIPOS>PharmSim
0.3210
# END
# Name:		O=C(NC2=CC=CC=C2N)C1=CN=CC=N1
# Created and modified by SHAFTS on Sun Mar 21 16:57:45 2021

# 

@<TRIPOS>MOLECULE
O=C(NC2=CC=CC=C2N)C1=CN=CC=N1
   26    27     0
SMALL
USER_CHARGE


@<TRIPOS>ATOM
      1 N1         -1.3775   -2.4142   -0.2498 N.pl3     1 <1>        -0.4218
      2 C2         -1.3647   -3.7157    0.2627 C.ar      1 <1>        -0.0695
      3 C3         -0.2890   -4.5530    0.0078 C.ar      1 <1>        -0.0728
      4 C4         -0.2787   -5.8391    0.5154 C.ar      1 <1>        -0.1034
      5 C5         -1.3383   -6.2944    1.2776 C.ar      1 <1>        -0.1000
      6 C6         -2.4152   -5.4667    1.5365 C.ar      1 <1>        -0.0648
      7 C7         -2.4314   -4.1735    1.0368 C.ar      1 <1>        -0.0243
      8 N8         -3.5209   -3.3331    1.2983 N.am      1 <1>        -0.2911
      9 C9         -4.7646   -3.8467    1.3762 C.2       1 <1>         0.1615
     10 O10        -4.9317   -5.0482    1.3010 O.2       1 <1>        -0.4529
     11 C11        -5.9275   -2.9469    1.5535 C.ar      1 <1>         0.1207
     12 C12        -7.2144   -3.4763    1.6401 C.ar      1 <1>         0.0357
     13 N13        -8.2486   -2.6698    1.7982 N.ar      1 <1>        -0.3701
     14 C14        -8.0640   -1.3637    1.8741 C.ar      1 <1>         0.0022
     15 C15        -6.7845   -0.8335    1.7882 C.ar      1 <1>         0.0020
     16 N16        -5.7468   -1.6313    1.6361 N.ar      1 <1>        -0.3576
     17 H17        -2.1287   -1.8284   -0.0672 H         1 <1>         0.2420
     18 H18        -0.6332   -2.0961   -0.7845 H         1 <1>         0.2498
     19 H19         0.5403   -4.2007   -0.5876 H         1 <1>         0.1192
     20 H20         0.5597   -6.4900    0.3155 H         1 <1>         0.1187
     21 H21        -1.3251   -7.2999    1.6717 H         1 <1>         0.1057
     22 H22        -3.2414   -5.8259    2.1321 H         1 <1>         0.1465
     23 H23        -3.3804   -2.3816    1.4232 H         1 <1>         0.3269
     24 H24        -7.3655   -4.5439    1.5776 H         1 <1>         0.2409
     25 H25        -8.9115   -0.7069    2.0030 H         1 <1>         0.2213
     26 H26        -6.6384    0.2347    1.8509 H         1 <1>         0.2153
@<TRIPOS>BOND
     1    1    2 1
     2    1   17 1
     3    1   18 1
     4    2    7 ar
     5    2    3 ar
     6    3    4 ar
     7    3   19 1
     8    4    5 ar
     9    4   20 1
    10    5    6 ar
    11    5   21 1
    12    6    7 ar
    13    6   22 1
    14    7    8 1
    15    8    9 am
    16    8   23 1
    17    9   10 2
    18    9   11 1
    19   11   16 ar
    20   11   12 ar
    21   12   13 ar
    22   12   24 1
    23   13   14 ar
    24   14   15 ar
    25   14   25 1
    26   15   16 ar
    27   15   26 1
@<TRIPOS>Similarity
1.0502
@<TRIPOS>ShapeSim
0.6670
@<TRIPOS>PharmSim
0.3832
# END
# Name:		C1CC(CNC1)C2=CC=C(C=C2)N3C=C4C=CC=C(C4=N3)C(=O)N
# Created and modified by SHAFTS on Sun Mar 21 16:57:45 2021

# 

@<TRIPOS>MOLECULE
C1CC(CNC1)C2=CC=C(C=C2)N3C=C4C=CC=C(C4=N3)C(=O)N
   45    48     0
SMALL
USER_CHARGE


@<TRIPOS>ATOM
      1 N1         -6.6851    2.7503    2.0529 N.am      1 <1>        -0.3457
      2 C2         -6.2057    1.4987    1.9100 C.2       1 <1>         0.0961
      3 O3         -5.0101    1.3166    1.7792 O.2       1 <1>        -0.4831
      4 C4         -7.1287    0.3526    1.9122 C.ar      1 <1>         0.0671
      5 C5         -8.4944    0.5432    2.0545 C.ar      1 <1>        -0.0509
      6 C6         -9.3777   -0.5289    2.0580 C.ar      1 <1>        -0.0838
      7 C7         -8.9660   -1.8165    1.9244 C.ar      1 <1>        -0.0809
      8 C8         -7.5989   -2.1192    1.7738 C.ar      1 <1>        -0.0197
      9 C9         -6.8677   -3.2845    1.6197 C.2       1 <1>        -0.0013
     10 N10        -5.5727   -2.9467    1.5233 N.pl3     1 <1>        -0.2771
     11 C11        -4.5160   -3.8510    1.3573 C.ar      1 <1>         0.0047
     12 C12        -4.7726   -5.2133    1.2746 C.ar      1 <1>        -0.0474
     13 C13        -3.7283   -6.1024    1.1109 C.ar      1 <1>        -0.0871
     14 C14        -2.4286   -5.6373    1.0293 C.ar      1 <1>        -0.1091
     15 C15        -1.2918   -6.6102    0.8501 C.3       1 <1>        -0.0618
     16 H16        -1.6853   -7.6258    0.8066 H         1 <1>         0.0844
     17 C17        -0.3229   -6.4873    2.0297 C.3       1 <1>        -0.0574
     18 C18         0.8674   -7.4229    1.7995 C.3       1 <1>        -0.0730
     19 C19         1.5313   -7.0758    0.4652 C.3       1 <1>        -0.1102
     20 N20         0.5617   -7.2380   -0.6247 N.4       1 <1>         0.4273
     21 H21         1.0167   -7.0603   -1.5075 H         1 <1>         0.1556
     22 H22         0.2024   -8.1808   -0.6164 H         1 <1>         0.1556
     23 C23        -0.5486   -6.2939   -0.4496 C.3       1 <1>        -0.0995
     24 C24        -2.1699   -4.2813    1.1112 C.ar      1 <1>        -0.0859
     25 C25        -3.2102   -3.3867    1.2692 C.ar      1 <1>        -0.0413
     26 N26        -5.4344   -1.5566    1.6125 N.2       1 <1>        -0.3034
     27 C27        -6.6245   -1.0157    1.7580 C.ar      1 <1>         0.0335
     28 H28        -6.0766    3.5057    2.0515 H         1 <1>         0.2790
     29 H29        -7.6388    2.8958    2.1533 H         1 <1>         0.2712
     30 H30        -8.8796    1.5461    2.1653 H         1 <1>         0.1536
     31 H31       -10.4332   -0.3309    2.1716 H         1 <1>         0.1230
     32 H32        -9.6933   -2.6149    1.9343 H         1 <1>         0.1437
     33 H33        -7.2682   -4.2868    1.5841 H         1 <1>         0.2262
     34 H34        -5.7873   -5.5772    1.3386 H         1 <1>         0.1397
     35 H35        -3.9271   -7.1620    1.0469 H         1 <1>         0.1379
     36 H36         0.0309   -5.4591    2.1052 H         1 <1>         0.0618
     37 H37        -0.8334   -6.7670    2.9513 H         1 <1>         0.0690
     38 H38         1.5885   -7.3001    2.6076 H         1 <1>         0.0720
     39 H39         0.5194   -8.4555    1.7752 H         1 <1>         0.0578
     40 H40         1.8792   -6.0431    0.4907 H         1 <1>         0.0854
     41 H41         2.3794   -7.7399    0.2982 H         1 <1>         0.0854
     42 H42        -1.2351   -6.3808   -1.2916 H         1 <1>         0.0962
     43 H43        -0.1571   -5.2777   -0.4044 H         1 <1>         0.0891
     44 H44        -1.1538   -3.9212    1.0471 H         1 <1>         0.1291
     45 H45        -3.0075   -2.3277    1.3327 H         1 <1>         0.1544
@<TRIPOS>BOND
     1    1    2 am
     2    1   28 1
     3    1   29 1
     4    2    3 2
     5    2    4 1
     6    4   27 ar
     7    4    5 ar
     8    5    6 ar
     9    5   30 1
    10    6    7 ar
    11    6   31 1
    12    7    8 ar
    13    7   32 1
    14    8   27 ar
    15    8    9 2
    16    9   10 1
    17    9   33 1
    18   10   11 1
    19   10   26 1
    20   11   25 ar
    21   11   12 ar
    22   12   13 ar
    23   12   34 1
    24   13   14 ar
    25   13   35 1
    26   14   15 1
    27   14   24 ar
    28   15   16 1
    29   15   23 1
    30   15   17 1
    31   17   18 1
    32   17   36 1
    33   17   37 1
    34   18   19 1
    35   18   38 1
    36   18   39 1
    37   19   20 1
    38   19   40 1
    39   19   41 1
    40   20   21 1
    41   20   22 1
    42   20   23 1
    43   23   42 1
    44   23   43 1
    45   24   25 ar
    46   24   44 1
    47   25   45 1
    48   26   27 2
@<TRIPOS>Similarity
1.0497
@<TRIPOS>ShapeSim
0.6352
@<TRIPOS>PharmSim
0.4145
# END
# Name:		CC1=CC2=C(C3=CC(=C(C=C13)OC)OC)C(=O)NC2=O
# Created and modified by SHAFTS on Sun Mar 21 16:57:45 2021

# 

@<TRIPOS>MOLECULE
CC1=CC2=C(C3=CC(=C(C=C13)OC)OC)C(=O)NC2=O
   33    35     0
SMALL
USER_CHARGE


@<TRIPOS>ATOM
      1 C1         -6.1529    2.9433    1.9824 C.3       1 <1>         0.0292
      2 O2         -7.5083    2.5043    2.0929 O.3       1 <1>        -0.4003
      3 C3         -7.7310    1.1661    2.0208 C.ar      1 <1>         0.0491
      4 C4         -9.0434    0.6746    2.1172 C.ar      1 <1>         0.0475
      5 O5        -10.0751    1.5434    2.2814 O.3       1 <1>        -0.4005
      6 C6        -11.3866    0.9834    2.3728 C.3       1 <1>         0.0292
      7 C7         -9.2945   -0.6644    2.0475 C.ar      1 <1>        -0.0380
      8 C8         -8.2302   -1.5665    1.8777 C.ar      1 <1>        -0.0597
      9 C9         -8.4619   -2.9495    1.8023 C.ar      1 <1>        -0.0822
     10 C10        -9.8689   -3.4796    1.9049 C.3       1 <1>        -0.0304
     11 C11        -7.4213   -3.8163    1.6366 C.ar      1 <1>        -0.0523
     12 C12        -6.1102   -3.3487    1.5391 C.ar      1 <1>         0.0616
     13 C13        -5.8401   -1.9754    1.6104 C.ar      1 <1>         0.0692
     14 C14        -4.3787   -1.8377    1.4744 C.2       1 <1>         0.1566
     15 O15        -3.7610   -0.7917    1.4882 O.2       1 <1>        -0.4299
     16 N16        -3.8431   -3.0636    1.3334 N.am      1 <1>        -0.2192
     17 C17        -4.7985   -4.0100    1.3610 C.2       1 <1>         0.1550
     18 O18        -4.6153   -5.2061    1.2581 O.2       1 <1>        -0.4298
     19 C19        -6.9022   -1.0675    1.7807 C.ar      1 <1>        -0.0359
     20 C20        -6.6773    0.3151    1.8501 C.ar      1 <1>        -0.0304
     21 H21        -6.1159    4.0302    2.0560 H         1 <1>         0.1277
     22 H22        -5.5621    2.5044    2.7865 H         1 <1>         0.0916
     23 H23        -5.7468    2.6301    1.0206 H         1 <1>         0.0916
     24 H24       -11.6106    0.4318    1.4597 H         1 <1>         0.0916
     25 H25       -11.4342    0.3073    3.2266 H         1 <1>         0.0916
     26 H26       -12.1152    1.7836    2.5020 H         1 <1>         0.1277
     27 H27       -10.3079   -1.0301    2.1228 H         1 <1>         0.1345
     28 H28       -10.3098   -3.5348    0.9095 H         1 <1>         0.0648
     29 H29        -9.8508   -4.4744    2.3500 H         1 <1>         0.0648
     30 H30       -10.4638   -2.8130    2.5293 H         1 <1>         0.0577
     31 H31        -7.6148   -4.8773    1.5804 H         1 <1>         0.1456
     32 H32        -2.8955   -3.2411    1.2261 H         1 <1>         0.3583
     33 H33        -5.6732    0.7051    1.7728 H         1 <1>         0.1439
@<TRIPOS>BOND
     1    1    2 1
     2    1   21 1
     3    1   22 1
     4    1   23 1
     5    2    3 1
     6    3   20 ar
     7    3    4 ar
     8    4    5 1
     9    4    7 ar
    10    5    6 1
    11    6   24 1
    12    6   25 1
    13    6   26 1
    14    7    8 ar
    15    7   27 1
    16    8   19 ar
    17    8    9 ar
    18    9   10 1
    19    9   11 ar
    20   10   28 1
    21   10   29 1
    22   10   30 1
    23   11   12 ar
    24   11   31 1
    25   12   17 1
    26   12   13 ar
    27   13   14 1
    28   13   19 ar
    29   14   15 2
    30   14   16 am
    31   16   17 am
    32   16   32 1
    33   17   18 2
    34   19   20 ar
    35   20   33 1
@<TRIPOS>Similarity
1.0489
@<TRIPOS>ShapeSim
0.6348
@<TRIPOS>PharmSim
0.4141
# END
# Name:		O=C(NCC)NC(C=C1)=CC=C1C2=NC3=C(CCN(C4COC4)C3)C(N5[C@@H](C)COCC5)=N2
# Created and modified by SHAFTS on Sun Mar 21 16:57:45 2021

# 

@<TRIPOS>MOLECULE
O=C(NCC)NC(C=C1)=CC=C1C2=NC3=C(CCN(C4COC4)C3)C(N5[C@@H](C)COCC5)=N2
   65    69     0
SMALL
USER_CHARGE


@<TRIPOS>ATOM
      1 C1          4.9035   -4.5865    1.8529 C.3       1 <1>        -0.0462
      2 C2          3.5929   -3.8373    2.1017 C.3       1 <1>        -0.0320
      3 N3          2.4990   -4.5241    1.4105 N.am      1 <1>        -0.3340
      4 C4          1.2435   -4.0403    1.4886 C.2       1 <1>         0.1201
      5 O5          1.0189   -3.0338    2.1327 O.2       1 <1>        -0.4786
      6 N6          0.2370   -4.6721    0.8528 N.am      1 <1>        -0.2895
      7 C7         -1.0775   -4.2257    1.0093 C.ar      1 <1>        -0.0405
      8 C8         -1.3380   -2.8661    1.1374 C.ar      1 <1>        -0.0480
      9 C9         -2.6338   -2.4234    1.2920 C.ar      1 <1>        -0.0508
     10 C10        -3.6844   -3.3404    1.3197 C.ar      1 <1>         0.0069
     11 C11        -5.0788   -2.8669    1.4852 C.ar      1 <1>         0.0440
     12 N12        -5.3104   -1.5673    1.6001 N.ar      1 <1>        -0.3505
     13 C13        -6.5457   -1.1020    1.7479 C.ar      1 <1>        -0.0330
     14 C14        -7.5954   -1.9906    1.7802 C.ar      1 <1>        -0.0307
     15 C15        -9.0200   -1.5339    1.9382 C.3       1 <1>        -0.0353
     16 C16        -9.0501   -0.0946    2.4556 C.3       1 <1>        -0.1715
     17 N17        -8.1594    0.7236    1.6175 N.3       1 <1>         0.3518
     18 C18        -8.4015    2.1562    1.8343 C.3       1 <1>        -0.1368
     19 C19        -8.0818    3.0334    0.6092 C.3       1 <1>        -0.0113
     20 O20        -9.3146    3.7148    0.9170 O.3       1 <1>        -0.4659
     21 C21        -9.8661    2.5797    1.6143 C.3       1 <1>        -0.0113
     22 C22        -6.7568    0.3821    1.8786 C.3       1 <1>        -0.1092
     23 C23        -7.3230   -3.3579    1.6590 C.ar      1 <1>        -0.1391
     24 N24        -8.3524   -4.2846    1.6895 N.3       1 <1>         0.3858
     25 C25        -8.5296   -4.9186    0.3749 C.3       1 <1>        -0.1299
     26 C26        -9.7122   -5.8889    0.4375 C.3       1 <1>        -0.0107
     27 O27        -9.4819   -6.8470    1.4740 O.3       1 <1>        -0.4602
     28 C28        -9.3055   -6.2640    2.7680 C.3       1 <1>        -0.0108
     29 C29        -8.1189   -5.2975    2.7290 C.3       1 <1>        -0.1397
     30 H30        -7.2071   -5.8497    2.5009 H         1 <1>         0.0522
     31 C31        -7.9739   -4.6114    4.0888 C.3       1 <1>        -0.0728
     32 N32        -6.0646   -3.7540    1.5092 N.ar      1 <1>        -0.3728
     33 C33        -3.4203   -4.7039    1.1909 C.ar      1 <1>        -0.0560
     34 C34        -2.1234   -5.1413    1.0309 C.ar      1 <1>        -0.0577
     35 H35         5.7175   -4.0756    2.3671 H         1 <1>         0.0548
     36 H36         4.8172   -5.6051    2.2314 H         1 <1>         0.0405
     37 H37         5.1095   -4.6129    0.7828 H         1 <1>         0.0405
     38 H38         3.3870   -3.8110    3.1717 H         1 <1>         0.0960
     39 H39         3.6793   -2.8188    1.7232 H         1 <1>         0.0960
     40 H40         2.6782   -5.3271    0.8967 H         1 <1>         0.2984
     41 H41         0.4253   -5.4368    0.2865 H         1 <1>         0.3252
     42 H42        -0.5241   -2.1564    1.1163 H         1 <1>         0.1484
     43 H43        -2.8357   -1.3671    1.3918 H         1 <1>         0.1495
     44 H44        -9.5251   -1.5826    0.9736 H         1 <1>         0.0858
     45 H45        -9.5324   -2.1844    2.6471 H         1 <1>         0.0858
     46 H46       -10.0668    0.2942    2.3972 H         1 <1>         0.0602
     47 H47        -8.7049   -0.0699    3.4893 H         1 <1>         0.0244
     48 H48        -7.9720    2.5245    2.7660 H         1 <1>         0.0559
     49 H49        -7.1933    3.6531    0.7304 H         1 <1>         0.1141
     50 H50        -8.1011    2.4931   -0.3372 H         1 <1>         0.1141
     51 H51       -10.4302    1.9008    0.9748 H         1 <1>         0.1141
     52 H52       -10.3928    2.8395    2.5326 H         1 <1>         0.1141
     53 H53        -6.4911    0.6965    2.8879 H         1 <1>         0.0749
     54 H54        -6.1199    0.9015    1.1627 H         1 <1>         0.1036
     55 H55        -8.7267   -4.1525   -0.3750 H         1 <1>         0.0641
     56 H56        -7.6244   -5.4646    0.1092 H         1 <1>         0.0426
     57 H57       -10.6265   -5.3351    0.6505 H         1 <1>         0.0964
     58 H58        -9.8117   -6.4035   -0.5182 H         1 <1>         0.1254
     59 H59       -10.2080   -5.7211    3.0487 H         1 <1>         0.0973
     60 H60        -9.1110   -7.0500    3.4979 H         1 <1>         0.1263
     61 H61        -7.7179   -5.3536    4.8449 H         1 <1>         0.0486
     62 H62        -7.1853   -3.8608    4.0349 H         1 <1>         0.0344
     63 H63        -8.9152   -4.1308    4.3554 H         1 <1>         0.0486
     64 H64        -4.2320   -5.4159    1.2123 H         1 <1>         0.1482
     65 H65        -1.9183   -6.1970    0.9311 H         1 <1>         0.1256
@<TRIPOS>BOND
     1    1    2 1
     2    1   35 1
     3    1   36 1
     4    1   37 1
     5    2    3 1
     6    2   38 1
     7    2   39 1
     8    3    4 am
     9    3   40 1
    10    4    5 2
    11    4    6 am
    12    6    7 1
    13    6   41 1
    14    7   34 ar
    15    7    8 ar
    16    8    9 ar
    17    8   42 1
    18    9   10 ar
    19    9   43 1
    20   10   11 1
    21   10   33 ar
    22   11   32 ar
    23   11   12 ar
    24   12   13 ar
    25   13   22 1
    26   13   14 ar
    27   14   15 1
    28   14   23 ar
    29   15   16 1
    30   15   44 1
    31   15   45 1
    32   16   17 1
    33   16   46 1
    34   16   47 1
    35   17   18 1
    36   17   22 1
    37   18   21 1
    38   18   19 1
    39   18   48 1
    40   19   20 1
    41   19   49 1
    42   19   50 1
    43   20   21 1
    44   21   51 1
    45   21   52 1
    46   22   53 1
    47   22   54 1
    48   23   24 1
    49   23   32 ar
    50   24   29 1
    51   24   25 1
    52   25   26 1
    53   25   55 1
    54   25   56 1
    55   26   27 1
    56   26   57 1
    57   26   58 1
    58   27   28 1
    59   28   29 1
    60   28   59 1
    61   28   60 1
    62   29   30 1
    63   29   31 1
    64   31   61 1
    65   31   62 1
    66   31   63 1
    67   33   34 ar
    68   33   64 1
    69   34   65 1
@<TRIPOS>Similarity
1.0487
@<TRIPOS>ShapeSim
0.6795
@<TRIPOS>PharmSim
0.3692
# END
# Name:		CCNC(=O)NC1=CC=C(C=C1)C2=NC3=C(CCN(C3)C4COC4)C(=N2)N5CCOCC5C
# Created and modified by SHAFTS on Sun Mar 21 16:57:45 2021

# 

@<TRIPOS>MOLECULE
CCNC(=O)NC1=CC=C(C=C1)C2=NC3=C(CCN(C3)C4COC4)C(=N2)N5CCOCC5C
   65    69     0
SMALL
USER_CHARGE


@<TRIPOS>ATOM
      1 C1          4.9035   -4.5865    1.8529 C.3       1 <1>        -0.0462
      2 C2          3.5929   -3.8373    2.1017 C.3       1 <1>        -0.0320
      3 N3          2.4990   -4.5241    1.4105 N.am      1 <1>        -0.3340
      4 C4          1.2435   -4.0403    1.4886 C.2       1 <1>         0.1201
      5 O5          1.0189   -3.0338    2.1327 O.2       1 <1>        -0.4786
      6 N6          0.2370   -4.6721    0.8528 N.am      1 <1>        -0.2895
      7 C7         -1.0775   -4.2257    1.0093 C.ar      1 <1>        -0.0405
      8 C8         -1.3380   -2.8661    1.1374 C.ar      1 <1>        -0.0480
      9 C9         -2.6338   -2.4234    1.2920 C.ar      1 <1>        -0.0508
     10 C10        -3.6844   -3.3404    1.3197 C.ar      1 <1>         0.0069
     11 C11        -5.0788   -2.8669    1.4852 C.ar      1 <1>         0.0440
     12 N12        -5.3104   -1.5673    1.6001 N.ar      1 <1>        -0.3505
     13 C13        -6.5457   -1.1020    1.7479 C.ar      1 <1>        -0.0330
     14 C14        -7.5954   -1.9906    1.7802 C.ar      1 <1>        -0.0307
     15 C15        -9.0200   -1.5339    1.9382 C.3       1 <1>        -0.0353
     16 C16        -9.0501   -0.0946    2.4556 C.3       1 <1>        -0.1715
     17 N17        -8.1594    0.7236    1.6175 N.3       1 <1>         0.3518
     18 C18        -8.4015    2.1562    1.8343 C.3       1 <1>        -0.1368
     19 C19        -8.0818    3.0334    0.6092 C.3       1 <1>        -0.0113
     20 O20        -9.3146    3.7148    0.9170 O.3       1 <1>        -0.4659
     21 C21        -9.8661    2.5797    1.6143 C.3       1 <1>        -0.0113
     22 C22        -6.7568    0.3821    1.8786 C.3       1 <1>        -0.1092
     23 C23        -7.3230   -3.3579    1.6590 C.ar      1 <1>        -0.1391
     24 N24        -8.3524   -4.2846    1.6895 N.3       1 <1>         0.3858
     25 C25        -8.5296   -4.9186    0.3749 C.3       1 <1>        -0.1299
     26 C26        -9.7122   -5.8889    0.4375 C.3       1 <1>        -0.0107
     27 O27        -9.4819   -6.8470    1.4740 O.3       1 <1>        -0.4602
     28 C28        -9.3055   -6.2640    2.7680 C.3       1 <1>        -0.0108
     29 C29        -8.1189   -5.2975    2.7290 C.3       1 <1>        -0.1397
     30 H30        -7.2071   -5.8497    2.5009 H         1 <1>         0.0522
     31 C31        -7.9739   -4.6114    4.0888 C.3       1 <1>        -0.0728
     32 N32        -6.0646   -3.7540    1.5092 N.ar      1 <1>        -0.3728
     33 C33        -3.4203   -4.7039    1.1909 C.ar      1 <1>        -0.0560
     34 C34        -2.1234   -5.1413    1.0309 C.ar      1 <1>        -0.0577
     35 H35         5.7175   -4.0756    2.3671 H         1 <1>         0.0548
     36 H36         4.8172   -5.6051    2.2314 H         1 <1>         0.0405
     37 H37         5.1095   -4.6129    0.7828 H         1 <1>         0.0405
     38 H38         3.3870   -3.8110    3.1717 H         1 <1>         0.0960
     39 H39         3.6793   -2.8188    1.7232 H         1 <1>         0.0960
     40 H40         2.6782   -5.3271    0.8967 H         1 <1>         0.2984
     41 H41         0.4253   -5.4368    0.2865 H         1 <1>         0.3252
     42 H42        -0.5241   -2.1564    1.1163 H         1 <1>         0.1484
     43 H43        -2.8357   -1.3671    1.3918 H         1 <1>         0.1495
     44 H44        -9.5251   -1.5826    0.9736 H         1 <1>         0.0858
     45 H45        -9.5324   -2.1844    2.6471 H         1 <1>         0.0858
     46 H46       -10.0668    0.2942    2.3972 H         1 <1>         0.0602
     47 H47        -8.7049   -0.0699    3.4893 H         1 <1>         0.0244
     48 H48        -7.9720    2.5245    2.7660 H         1 <1>         0.0559
     49 H49        -7.1933    3.6531    0.7304 H         1 <1>         0.1141
     50 H50        -8.1011    2.4931   -0.3372 H         1 <1>         0.1141
     51 H51       -10.4302    1.9008    0.9748 H         1 <1>         0.1141
     52 H52       -10.3928    2.8395    2.5326 H         1 <1>         0.1141
     53 H53        -6.4911    0.6965    2.8879 H         1 <1>         0.0749
     54 H54        -6.1199    0.9015    1.1627 H         1 <1>         0.1036
     55 H55        -8.7267   -4.1525   -0.3750 H         1 <1>         0.0641
     56 H56        -7.6244   -5.4646    0.1092 H         1 <1>         0.0426
     57 H57       -10.6265   -5.3351    0.6505 H         1 <1>         0.0964
     58 H58        -9.8117   -6.4035   -0.5182 H         1 <1>         0.1254
     59 H59       -10.2080   -5.7211    3.0487 H         1 <1>         0.0973
     60 H60        -9.1110   -7.0500    3.4979 H         1 <1>         0.1263
     61 H61        -7.7179   -5.3536    4.8449 H         1 <1>         0.0486
     62 H62        -7.1853   -3.8608    4.0349 H         1 <1>         0.0344
     63 H63        -8.9152   -4.1308    4.3554 H         1 <1>         0.0486
     64 H64        -4.2320   -5.4159    1.2123 H         1 <1>         0.1482
     65 H65        -1.9183   -6.1970    0.9311 H         1 <1>         0.1256
@<TRIPOS>BOND
     1    1    2 1
     2    1   35 1
     3    1   36 1
     4    1   37 1
     5    2    3 1
     6    2   38 1
     7    2   39 1
     8    3    4 am
     9    3   40 1
    10    4    5 2
    11    4    6 am
    12    6    7 1
    13    6   41 1
    14    7   34 ar
    15    7    8 ar
    16    8    9 ar
    17    8   42 1
    18    9   10 ar
    19    9   43 1
    20   10   11 1
    21   10   33 ar
    22   11   32 ar
    23   11   12 ar
    24   12   13 ar
    25   13   22 1
    26   13   14 ar
    27   14   15 1
    28   14   23 ar
    29   15   16 1
    30   15   44 1
    31   15   45 1
    32   16   17 1
    33   16   46 1
    34   16   47 1
    35   17   18 1
    36   17   22 1
    37   18   21 1
    38   18   19 1
    39   18   48 1
    40   19   20 1
    41   19   49 1
    42   19   50 1
    43   20   21 1
    44   21   51 1
    45   21   52 1
    46   22   53 1
    47   22   54 1
    48   23   24 1
    49   23   32 ar
    50   24   29 1
    51   24   25 1
    52   25   26 1
    53   25   55 1
    54   25   56 1
    55   26   27 1
    56   26   57 1
    57   26   58 1
    58   27   28 1
    59   28   29 1
    60   28   59 1
    61   28   60 1
    62   29   30 1
    63   29   31 1
    64   31   61 1
    65   31   62 1
    66   31   63 1
    67   33   34 ar
    68   33   64 1
    69   34   65 1
@<TRIPOS>Similarity
1.0487
@<TRIPOS>ShapeSim
0.6795
@<TRIPOS>PharmSim
0.3692
# END
# Name:		C1COCCN1C2=NC(=NC3=C2NC=N3)NC4=CC=C(C=C4)F
# Created and modified by SHAFTS on Sun Mar 21 16:57:45 2021

# 

@<TRIPOS>MOLECULE
C1COCCN1C2=NC(=NC3=C2NC=N3)NC4=CC=C(C=C4)F
   38    41     0
SMALL
USER_CHARGE


@<TRIPOS>ATOM
      1 F1         -8.3573   -0.3917    1.9720 F         1 <1>        -0.2750
      2 C2         -7.4004   -1.3320    1.8129 C.ar      1 <1>         0.0606
      3 C3         -7.7028   -2.5257    1.1795 C.ar      1 <1>        -0.0441
      4 C4         -6.7260   -3.4883    1.0153 C.ar      1 <1>        -0.0570
      5 C5         -5.4398   -3.2583    1.4860 C.ar      1 <1>        -0.0331
      6 N6         -4.4485   -4.2318    1.3204 N.pl3     1 <1>        -0.2923
      7 C7         -3.1305   -3.8518    1.1156 C.ar      1 <1>         0.0831
      8 N8         -2.1937   -4.7904    1.0680 N.ar      1 <1>        -0.3387
      9 C9         -0.9164   -4.4750    0.8734 C.ar      1 <1>        -0.1042
     10 N10         0.0555   -5.4610    0.8244 N.3       1 <1>         0.3961
     11 C11         0.8082   -5.3966   -0.4368 C.3       1 <1>        -0.1251
     12 C12         1.9078   -6.4619   -0.4235 C.3       1 <1>        -0.0091
     13 O13         1.3172   -7.7469   -0.2104 O.3       1 <1>        -0.4626
     14 C14         0.5770   -7.8450    1.0094 C.3       1 <1>        -0.0090
     15 C15        -0.5361   -6.7939    1.0106 C.3       1 <1>        -0.1211
     16 C16        -0.5754   -3.1299    0.7189 C.ar      1 <1>         0.0298
     17 N17         0.5994   -2.4358    0.5071 N.pl3     1 <1>        -0.3223
     18 C18         0.2809   -1.1237    0.4426 C.2       1 <1>         0.0314
     19 N19        -1.0042   -0.9661    0.5997 N.2       1 <1>        -0.3247
     20 C20        -1.5929   -2.1641    0.7750 C.ar      1 <1>         0.0609
     21 N21        -2.8527   -2.5681    0.9694 N.ar      1 <1>        -0.2965
     22 C22        -5.1389   -2.0604    2.1210 C.ar      1 <1>        -0.0471
     23 C23        -6.1174   -1.0985    2.2783 C.ar      1 <1>        -0.0376
     24 H24        -8.7032   -2.7043    0.8139 H         1 <1>         0.1359
     25 H25        -6.9622   -4.4192    0.5215 H         1 <1>         0.1318
     26 H26        -4.6831   -5.1727    1.3488 H         1 <1>         0.3497
     27 H27         0.1336   -5.5803   -1.2730 H         1 <1>         0.0500
     28 H28         1.2588   -4.4098   -0.5418 H         1 <1>         0.0572
     29 H29         2.4317   -6.4562   -1.3794 H         1 <1>         0.1311
     30 H30         2.6126   -6.2475    0.3799 H         1 <1>         0.1021
     31 H31         0.1383   -8.8397    1.0899 H         1 <1>         0.1312
     32 H32         1.2431   -7.6709    1.8544 H         1 <1>         0.0950
     33 H33        -1.0668   -6.8268    1.9621 H         1 <1>         0.0744
     34 H34        -1.2322   -6.9999    0.1976 H         1 <1>         0.0528
     35 H35         1.4868   -2.8180    0.4207 H         1 <1>         0.3472
     36 H36         0.9876   -0.3227    0.2839 H         1 <1>         0.3121
     37 H37        -4.1394   -1.8796    2.4881 H         1 <1>         0.1496
     38 H38        -5.8836   -0.1667    2.7718 H         1 <1>         0.1377
@<TRIPOS>BOND
     1    1    2 1
     2    2   23 ar
     3    2    3 ar
     4    3    4 ar
     5    3   24 1
     6    4    5 ar
     7    4   25 1
     8    5    6 1
     9    5   22 ar
    10    6    7 1
    11    6   26 1
    12    7   21 ar
    13    7    8 ar
    14    8    9 ar
    15    9   10 1
    16    9   16 ar
    17   10   15 1
    18   10   11 1
    19   11   12 1
    20   11   27 1
    21   11   28 1
    22   12   13 1
    23   12   29 1
    24   12   30 1
    25   13   14 1
    26   14   15 1
    27   14   31 1
    28   14   32 1
    29   15   33 1
    30   15   34 1
    31   16   20 ar
    32   16   17 1
    33   17   18 1
    34   17   35 1
    35   18   19 2
    36   18   36 1
    37   19   20 1
    38   20   21 ar
    39   22   23 ar
    40   22   37 1
    41   23   38 1
@<TRIPOS>Similarity
1.0484
@<TRIPOS>ShapeSim
0.7096
@<TRIPOS>PharmSim
0.3388
# END
# Name:		O=C(C(OC)=C(OC1=CC(OC)=C2)C3=CC=C(OC)C(OC)=C3)C1=C2OC
# Created and modified by SHAFTS on Sun Mar 21 16:57:45 2021

# 

@<TRIPOS>MOLECULE
O=C(C(OC)=C(OC1=CC(OC)=C2)C3=CC=C(OC)C(OC)=C3)C1=C2OC
   47    49     0
SMALL
USER_CHARGE


@<TRIPOS>ATOM
      1 C1          1.2114   -1.4754    0.9995 C.3       1 <1>         0.0309
      2 O2         -0.0227   -0.7759    1.1716 O.3       1 <1>        -0.4041
      3 C3         -1.1542   -1.5246    1.2189 C.ar      1 <1>         0.0073
      4 C4         -1.0695   -2.9081    1.1067 C.ar      1 <1>        -0.0214
      5 C5         -2.2153   -3.6804    1.1535 C.ar      1 <1>         0.0272
      6 O6         -2.1345   -5.0307    1.0442 O.3       1 <1>        -0.3940
      7 C7         -0.8302   -5.5917    0.8823 C.3       1 <1>         0.0358
      8 C8         -3.4602   -3.0588    1.3152 C.ar      1 <1>         0.0857
      9 C9         -4.7040   -3.8433    1.3707 C.2       1 <1>         0.1358
     10 O10        -4.6908   -5.0604    1.2778 O.2       1 <1>        -0.4486
     11 C11        -5.9192   -3.1297    1.5371 C.2       1 <1>         0.1225
     12 O12        -7.1038   -3.7971    1.5965 O.3       1 <1>        -0.4179
     13 C13        -7.5245   -4.4788    0.4131 C.3       1 <1>         0.0179
     14 C14        -5.8906   -1.7712    1.6371 C.2       1 <1>         0.0992
     15 C15        -7.1622   -1.0451    1.8097 C.ar      1 <1>        -0.0151
     16 C16        -8.0883   -1.4717    2.7650 C.ar      1 <1>        -0.0684
     17 C17        -9.2766   -0.7910    2.9250 C.ar      1 <1>        -0.0456
     18 C18        -9.5560    0.3179    2.1393 C.ar      1 <1>         0.0389
     19 O19       -10.7286    0.9851    2.3011 O.3       1 <1>        -0.4042
     20 C20       -11.6249    0.4894    3.2975 C.3       1 <1>         0.0271
     21 C21        -8.6366    0.7495    1.1844 C.ar      1 <1>         0.0406
     22 O22        -8.9135    1.8373    0.4167 O.3       1 <1>        -0.4084
     23 C23        -7.9263    2.2235   -0.5415 C.3       1 <1>         0.0255
     24 C24        -7.4418    0.0755    1.0217 C.ar      1 <1>        -0.0346
     25 O25        -4.7460   -1.0685    1.5850 O.3       1 <1>        -0.3154
     26 C26        -3.5429   -1.6596    1.4288 C.ar      1 <1>         0.0671
     27 C27        -2.3822   -0.9029    1.3842 C.ar      1 <1>         0.0028
     28 H28         1.3540   -2.1698    1.8275 H         1 <1>         0.0918
     29 H29         1.1872   -2.0293    0.0610 H         1 <1>         0.0918
     30 H30         2.0342   -0.7609    0.9786 H         1 <1>         0.1280
     31 H31        -0.1062   -3.3805    0.9823 H         1 <1>         0.1154
     32 H32        -0.3751   -5.1965   -0.0259 H         1 <1>         0.0931
     33 H33        -0.2129   -5.3299    1.7415 H         1 <1>         0.0931
     34 H34        -0.9078   -6.6763    0.8075 H         1 <1>         0.1293
     35 H35        -8.5218   -4.8911    0.5664 H         1 <1>         0.1208
     36 H36        -7.5452   -3.7784   -0.4217 H         1 <1>         0.0774
     37 H37        -6.8273   -5.2870    0.1921 H         1 <1>         0.0918
     38 H38        -7.8736   -2.3347    3.3777 H         1 <1>         0.1462
     39 H39        -9.9918   -1.1219    3.6636 H         1 <1>         0.1351
     40 H40       -11.9027   -0.5371    3.0581 H         1 <1>         0.0912
     41 H41       -11.1361    0.5158    4.2715 H         1 <1>         0.0912
     42 H42       -12.5197    1.1113    3.3231 H         1 <1>         0.1201
     43 H43        -6.9935    2.4572   -0.0282 H         1 <1>         0.0910
     44 H44        -7.7603    1.4053   -1.2421 H         1 <1>         0.0910
     45 H45        -8.2719    3.1028   -1.0851 H         1 <1>         0.1199
     46 H46        -6.7286    0.4089    0.2823 H         1 <1>         0.1362
     47 H47        -2.4350    0.1720    1.4747 H         1 <1>         0.1491
@<TRIPOS>BOND
     1    1    2 1
     2    1   28 1
     3    1   29 1
     4    1   30 1
     5    2    3 1
     6    3   27 ar
     7    3    4 ar
     8    4    5 ar
     9    4   31 1
    10    5    6 1
    11    5    8 ar
    12    6    7 1
    13    7   32 1
    14    7   33 1
    15    7   34 1
    16    8   26 ar
    17    8    9 1
    18    9   10 2
    19    9   11 1
    20   11   12 1
    21   11   14 2
    22   12   13 1
    23   13   35 1
    24   13   36 1
    25   13   37 1
    26   14   15 1
    27   14   25 1
    28   15   24 ar
    29   15   16 ar
    30   16   17 ar
    31   16   38 1
    32   17   18 ar
    33   17   39 1
    34   18   19 1
    35   18   21 ar
    36   19   20 1
    37   20   40 1
    38   20   41 1
    39   20   42 1
    40   21   22 1
    41   21   24 ar
    42   22   23 1
    43   23   43 1
    44   23   44 1
    45   23   45 1
    46   24   46 1
    47   25   26 1
    48   26   27 ar
    49   27   47 1
@<TRIPOS>Similarity
1.0468
@<TRIPOS>ShapeSim
0.7019
@<TRIPOS>PharmSim
0.3448
# END
# Name:		NC(CN1C2=CC=CC=C2C(O)(CC(C3=CC(C=CC=C4)=C4C=C3)=O)C1=O)=O
# Created and modified by SHAFTS on Sun Mar 21 16:57:45 2021

# 

@<TRIPOS>MOLECULE
NC(CN1C2=CC=CC=C2C(O)(CC(C3=CC(C=CC=C4)=C4C=C3)=O)C1=O)=O
   46    49     0
SMALL
USER_CHARGE


@<TRIPOS>ATOM
      1 N1          1.4804    1.3597    0.4221 N.am      1 <1>        -0.3530
      2 C2          0.8337    0.2146    0.7175 C.2       1 <1>         0.0812
      3 O3         -0.0894   -0.1567    0.0241 O.2       1 <1>        -0.4909
      4 C4          1.2578   -0.6043    1.9094 C.3       1 <1>         0.1031
      5 N5          0.4057   -1.7913    2.0144 N.am      1 <1>        -0.2788
      6 C6         -0.7450   -1.8283    2.7073 C.2       1 <1>         0.1623
      7 O7         -1.2394   -0.9137    3.3320 O.2       1 <1>        -0.4256
      8 C8         -1.3085   -3.2258    2.5613 C.3       1 <1>         0.1323
      9 O9         -1.4081   -3.8613    3.8373 O.3       1 <1>        -0.4424
     10 C10        -2.6763   -3.1835    1.8769 C.3       1 <1>         0.0889
     11 C11        -3.6012   -2.2860    2.6581 C.2       1 <1>         0.0898
     12 O12        -3.2056   -1.7347    3.6631 O.2       1 <1>        -0.4424
     13 C13        -4.9839   -2.0789    2.2015 C.ar      1 <1>        -0.0057
     14 C14        -5.4405   -2.7262    1.0368 C.ar      1 <1>        -0.0780
     15 C15        -6.7116   -2.5502    0.5966 C.ar      1 <1>        -0.0838
     16 C16        -7.5934   -1.7128    1.3050 C.ar      1 <1>        -0.0765
     17 C17        -8.9137   -1.5169    0.8675 C.ar      1 <1>        -0.0873
     18 C18        -9.7448   -0.7012    1.5733 C.ar      1 <1>        -0.0979
     19 C19        -9.3067   -0.0543    2.7274 C.ar      1 <1>        -0.0980
     20 C20        -8.0346   -0.2190    3.1820 C.ar      1 <1>        -0.0875
     21 C21        -7.1470   -1.0546    2.4797 C.ar      1 <1>        -0.0686
     22 C22        -5.8322   -1.2512    2.9246 C.ar      1 <1>        -0.0600
     23 C23        -0.2998   -3.9397    1.6914 C.ar      1 <1>        -0.0115
     24 C24        -0.2309   -5.2226    1.1976 C.ar      1 <1>        -0.0756
     25 C25         0.8406   -5.6015    0.4071 C.ar      1 <1>        -0.0919
     26 C26         1.8376   -4.6888    0.1166 C.ar      1 <1>        -0.0896
     27 C27         1.7712   -3.4022    0.6107 C.ar      1 <1>        -0.0594
     28 C28         0.6928   -3.0115    1.4016 C.ar      1 <1>        -0.0221
     29 H29         1.2074    1.8868   -0.3451 H         1 <1>         0.2769
     30 H30         2.2161    1.6587    0.9789 H         1 <1>         0.2691
     31 H31         2.2964   -0.9122    1.7877 H         1 <1>         0.1679
     32 H32         1.1602   -0.0056    2.8149 H         1 <1>         0.1679
     33 H33        -1.9971   -3.4094    4.4569 H         1 <1>         0.3454
     34 H34        -2.5640   -2.7963    0.8642 H         1 <1>         0.1143
     35 H35        -3.0940   -4.1895    1.8372 H         1 <1>         0.1143
     36 H36        -4.7701   -3.3702    0.4869 H         1 <1>         0.1304
     37 H37        -7.0471   -3.0530   -0.2985 H         1 <1>         0.1274
     38 H38        -9.2682   -2.0108   -0.0250 H         1 <1>         0.1266
     39 H39       -10.7591   -0.5530    1.2332 H         1 <1>         0.1251
     40 H40        -9.9864    0.5873    3.2684 H         1 <1>         0.1215
     41 H41        -7.7082    0.2889    4.0774 H         1 <1>         0.1296
     42 H42        -5.4811   -0.7599    3.8201 H         1 <1>         0.1524
     43 H43        -1.0115   -5.9329    1.4270 H         1 <1>         0.1397
     44 H44         0.8975   -6.6076    0.0186 H         1 <1>         0.1196
     45 H45         2.6734   -4.9847   -0.5002 H         1 <1>         0.1315
     46 H46         2.5543   -2.6952    0.3799 H         1 <1>         0.1290
@<TRIPOS>BOND
     1    1    2 am
     2    1   29 1
     3    1   30 1
     4    2    3 2
     5    2    4 1
     6    4    5 1
     7    4   31 1
     8    4   32 1
     9    5   28 1
    10    5    6 am
    11    6    7 2
    12    6    8 1
    13    8    9 1
    14    8   10 1
    15    8   23 1
    16    9   33 1
    17   10   11 1
    18   10   34 1
    19   10   35 1
    20   11   12 2
    21   11   13 1
    22   13   22 ar
    23   13   14 ar
    24   14   15 ar
    25   14   36 1
    26   15   16 ar
    27   15   37 1
    28   16   21 ar
    29   16   17 ar
    30   17   18 ar
    31   17   38 1
    32   18   19 ar
    33   18   39 1
    34   19   20 ar
    35   19   40 1
    36   20   21 ar
    37   20   41 1
    38   21   22 ar
    39   22   42 1
    40   23   28 ar
    41   23   24 ar
    42   24   25 ar
    43   24   43 1
    44   25   26 ar
    45   25   44 1
    46   26   27 ar
    47   26   45 1
    48   27   28 ar
    49   27   46 1
@<TRIPOS>Similarity
1.0461
@<TRIPOS>ShapeSim
0.7085
@<TRIPOS>PharmSim
0.3377
# END
# Name:		C1=CC=C2C=C(C=CC2=C1)C(=O)CC3(C4=CC=CC=C4N(C3=O)CC(=O)N)O
# Created and modified by SHAFTS on Sun Mar 21 16:57:45 2021

# 

@<TRIPOS>MOLECULE
C1=CC=C2C=C(C=CC2=C1)C(=O)CC3(C4=CC=CC=C4N(C3=O)CC(=O)N)O
   46    49     0
SMALL
USER_CHARGE


@<TRIPOS>ATOM
      1 N1          1.4804    1.3597    0.4221 N.am      1 <1>        -0.3530
      2 C2          0.8337    0.2146    0.7175 C.2       1 <1>         0.0812
      3 O3         -0.0894   -0.1567    0.0241 O.2       1 <1>        -0.4909
      4 C4          1.2578   -0.6043    1.9094 C.3       1 <1>         0.1031
      5 N5          0.4057   -1.7913    2.0144 N.am      1 <1>        -0.2788
      6 C6         -0.7450   -1.8283    2.7073 C.2       1 <1>         0.1623
      7 O7         -1.2394   -0.9137    3.3320 O.2       1 <1>        -0.4256
      8 C8         -1.3085   -3.2258    2.5613 C.3       1 <1>         0.1323
      9 O9         -1.4081   -3.8613    3.8373 O.3       1 <1>        -0.4424
     10 C10        -2.6763   -3.1835    1.8769 C.3       1 <1>         0.0889
     11 C11        -3.6012   -2.2860    2.6581 C.2       1 <1>         0.0898
     12 O12        -3.2056   -1.7347    3.6631 O.2       1 <1>        -0.4424
     13 C13        -4.9839   -2.0789    2.2015 C.ar      1 <1>        -0.0057
     14 C14        -5.4405   -2.7262    1.0368 C.ar      1 <1>        -0.0780
     15 C15        -6.7116   -2.5502    0.5966 C.ar      1 <1>        -0.0838
     16 C16        -7.5934   -1.7128    1.3050 C.ar      1 <1>        -0.0765
     17 C17        -8.9137   -1.5169    0.8675 C.ar      1 <1>        -0.0873
     18 C18        -9.7448   -0.7012    1.5733 C.ar      1 <1>        -0.0979
     19 C19        -9.3067   -0.0543    2.7274 C.ar      1 <1>        -0.0980
     20 C20        -8.0346   -0.2190    3.1820 C.ar      1 <1>        -0.0875
     21 C21        -7.1470   -1.0546    2.4797 C.ar      1 <1>        -0.0686
     22 C22        -5.8322   -1.2512    2.9246 C.ar      1 <1>        -0.0600
     23 C23        -0.2998   -3.9397    1.6914 C.ar      1 <1>        -0.0115
     24 C24        -0.2309   -5.2226    1.1976 C.ar      1 <1>        -0.0756
     25 C25         0.8406   -5.6015    0.4071 C.ar      1 <1>        -0.0919
     26 C26         1.8376   -4.6888    0.1166 C.ar      1 <1>        -0.0896
     27 C27         1.7712   -3.4022    0.6107 C.ar      1 <1>        -0.0594
     28 C28         0.6928   -3.0115    1.4016 C.ar      1 <1>        -0.0221
     29 H29         1.2074    1.8868   -0.3451 H         1 <1>         0.2769
     30 H30         2.2161    1.6587    0.9789 H         1 <1>         0.2691
     31 H31         2.2964   -0.9122    1.7877 H         1 <1>         0.1679
     32 H32         1.1602   -0.0056    2.8149 H         1 <1>         0.1679
     33 H33        -1.9971   -3.4094    4.4569 H         1 <1>         0.3454
     34 H34        -2.5640   -2.7963    0.8642 H         1 <1>         0.1143
     35 H35        -3.0940   -4.1895    1.8372 H         1 <1>         0.1143
     36 H36        -4.7701   -3.3702    0.4869 H         1 <1>         0.1304
     37 H37        -7.0471   -3.0530   -0.2985 H         1 <1>         0.1274
     38 H38        -9.2682   -2.0108   -0.0250 H         1 <1>         0.1266
     39 H39       -10.7591   -0.5530    1.2332 H         1 <1>         0.1251
     40 H40        -9.9864    0.5873    3.2684 H         1 <1>         0.1215
     41 H41        -7.7082    0.2889    4.0774 H         1 <1>         0.1296
     42 H42        -5.4811   -0.7599    3.8201 H         1 <1>         0.1524
     43 H43        -1.0115   -5.9329    1.4270 H         1 <1>         0.1397
     44 H44         0.8975   -6.6076    0.0186 H         1 <1>         0.1196
     45 H45         2.6734   -4.9847   -0.5002 H         1 <1>         0.1315
     46 H46         2.5543   -2.6952    0.3799 H         1 <1>         0.1290
@<TRIPOS>BOND
     1    1    2 am
     2    1   29 1
     3    1   30 1
     4    2    3 2
     5    2    4 1
     6    4    5 1
     7    4   31 1
     8    4   32 1
     9    5   28 1
    10    5    6 am
    11    6    7 2
    12    6    8 1
    13    8    9 1
    14    8   10 1
    15    8   23 1
    16    9   33 1
    17   10   11 1
    18   10   34 1
    19   10   35 1
    20   11   12 2
    21   11   13 1
    22   13   22 ar
    23   13   14 ar
    24   14   15 ar
    25   14   36 1
    26   15   16 ar
    27   15   37 1
    28   16   21 ar
    29   16   17 ar
    30   17   18 ar
    31   17   38 1
    32   18   19 ar
    33   18   39 1
    34   19   20 ar
    35   19   40 1
    36   20   21 ar
    37   20   41 1
    38   21   22 ar
    39   22   42 1
    40   23   28 ar
    41   23   24 ar
    42   24   25 ar
    43   24   43 1
    44   25   26 ar
    45   25   44 1
    46   26   27 ar
    47   26   45 1
    48   27   28 ar
    49   27   46 1
@<TRIPOS>Similarity
1.0461
@<TRIPOS>ShapeSim
0.7085
@<TRIPOS>PharmSim
0.3377
# END
# Name:		CC1=CC2=NNC(=O)N2C3=C1C=CC(=C3)C4=CC=C(C=C4)CO
# Created and modified by SHAFTS on Sun Mar 21 16:57:45 2021

# 

@<TRIPOS>MOLECULE
CC1=CC2=NNC(=O)N2C3=C1C=CC(=C3)C4=CC=C(C=C4)CO
   38    41     0
SMALL
USER_CHARGE


@<TRIPOS>ATOM
      1 C1          0.5659    1.1914    1.2650 C.3       1 <1>        -0.0247
      2 C2          0.1382   -0.2520    1.1952 C.2       1 <1>        -0.0647
      3 C3          1.0569   -1.2278    1.0368 C.2       1 <1>        -0.0013
      4 C4          0.6307   -2.6274    0.9705 C.2       1 <1>         0.0822
      5 N5          1.3172   -3.7357    0.8236 N.2       1 <1>        -0.2939
      6 N6          0.4143   -4.8070    0.8261 N.am      1 <1>        -0.2208
      7 C7         -0.8236   -4.2959    0.9789 C.2       1 <1>         0.1923
      8 O8         -1.8617   -4.9322    1.0265 O.2       1 <1>        -0.4530
      9 N9         -0.7088   -2.9546    1.0694 N.am      1 <1>        -0.2133
     10 C10        -1.6669   -1.9588    1.2330 C.ar      1 <1>         0.0111
     11 C11        -3.0085   -2.2932    1.3317 C.ar      1 <1>        -0.0322
     12 C12        -3.9605   -1.2906    1.4951 C.ar      1 <1>        -0.0610
     13 C13        -5.3963   -1.6458    1.6014 C.ar      1 <1>        -0.0708
     14 C14        -5.7927   -2.9811    1.5437 C.ar      1 <1>        -0.0842
     15 C15        -7.1303   -3.3056    1.6436 C.ar      1 <1>        -0.0889
     16 C16        -8.0769   -2.3092    1.8007 C.ar      1 <1>        -0.0835
     17 C17        -9.5359   -2.6702    1.9098 C.3       1 <1>        -0.0094
     18 O18        -9.8737   -2.8784    3.2825 O.3       1 <1>        -0.4890
     19 C19        -7.6892   -0.9825    1.8587 C.ar      1 <1>        -0.0889
     20 C20        -6.3541   -0.6463    1.7651 C.ar      1 <1>        -0.0842
     21 C21        -3.5686    0.0487    1.5599 C.ar      1 <1>        -0.0748
     22 C22        -2.2498    0.3869    1.4636 C.ar      1 <1>        -0.0697
     23 C23        -1.2804   -0.6101    1.3048 C.ar      1 <1>        -0.0319
     24 H24         0.7677    1.4608    2.3018 H         1 <1>         0.0737
     25 H25         1.4689    1.3319    0.6708 H         1 <1>         0.0665
     26 H26        -0.2294    1.8254    0.8730 H         1 <1>         0.0665
     27 H27         2.1044   -0.9770    0.9587 H         1 <1>         0.1701
     28 H28         0.6393   -5.7461    0.7342 H         1 <1>         0.4039
     29 H29        -3.3142   -3.3277    1.2816 H         1 <1>         0.1585
     30 H30        -5.0547   -3.7598    1.4207 H         1 <1>         0.1287
     31 H31        -7.4388   -4.3398    1.5987 H         1 <1>         0.1271
     32 H32       -10.1420   -1.8597    1.5053 H         1 <1>         0.0982
     33 H33        -9.7273   -3.5834    1.3460 H         1 <1>         0.0982
     34 H34       -10.8001   -3.1147    3.4282 H         1 <1>         0.3224
     35 H35        -8.4325   -0.2087    1.9811 H         1 <1>         0.1271
     36 H36        -6.0525    0.3897    1.8108 H         1 <1>         0.1287
     37 H37        -4.3131    0.8207    1.6864 H         1 <1>         0.1345
     38 H38        -1.9536    1.4243    1.5141 H         1 <1>         0.1502
@<TRIPOS>BOND
     1    1    2 1
     2    1   24 1
     3    1   25 1
     4    1   26 1
     5    2   23 1
     6    2    3 2
     7    3    4 1
     8    3   27 1
     9    4    9 1
    10    4    5 2
    11    5    6 1
    12    6    7 am
    13    6   28 1
    14    7    8 2
    15    7    9 am
    16    9   10 1
    17   10   23 ar
    18   10   11 ar
    19   11   12 ar
    20   11   29 1
    21   12   13 1
    22   12   21 ar
    23   13   20 ar
    24   13   14 ar
    25   14   15 ar
    26   14   30 1
    27   15   16 ar
    28   15   31 1
    29   16   17 1
    30   16   19 ar
    31   17   18 1
    32   17   32 1
    33   17   33 1
    34   18   34 1
    35   19   20 ar
    36   19   35 1
    37   20   36 1
    38   21   22 ar
    39   21   37 1
    40   22   23 ar
    41   22   38 1
@<TRIPOS>Similarity
1.0459
@<TRIPOS>ShapeSim
0.7177
@<TRIPOS>PharmSim
0.3283
# END
# Name:		CC1=CC(=C(C=C1)NCC(CN)O)Br
# Created and modified by SHAFTS on Sun Mar 21 16:57:45 2021

# 

@<TRIPOS>MOLECULE
CC1=CC(=C(C=C1)NCC(CN)O)Br
   30    30     0
SMALL
USER_CHARGE


@<TRIPOS>ATOM
      1 C1         -8.8353   -0.4753    2.5442 C.3       1 <1>        -0.0432
      2 C2         -7.6113   -1.2308    2.0946 C.ar      1 <1>        -0.1067
      3 C3         -6.3927   -0.9942    2.7032 C.ar      1 <1>        -0.0944
      4 C4         -5.2683   -1.6848    2.2936 C.ar      1 <1>        -0.0683
      5 C5         -5.3629   -2.6179    1.2699 C.ar      1 <1>        -0.0672
      6 N6         -4.2278   -3.3184    0.8537 N.pl3     1 <1>        -0.4093
      7 C7         -2.9359   -3.0686    1.4976 C.3       1 <1>        -0.0261
      8 C8         -1.8674   -3.9586    0.8596 C.3       1 <1>        -0.0222
      9 H9         -1.7932   -3.7316   -0.2039 H         1 <1>         0.1433
     10 O10        -2.2270   -5.3311    1.0298 O.3       1 <1>        -0.4820
     11 C11        -0.5182   -3.6977    1.5322 C.3       1 <1>        -0.0890
     12 N12         0.5291   -4.4623    0.8418 N.4       1 <1>         0.4492
     13 H13         0.5738   -4.1749   -0.1244 H         1 <1>         0.1495
     14 H14         1.4189   -4.2903    1.2854 H         1 <1>         0.1495
     15 H15         0.3139   -5.4469    0.8903 H         1 <1>         0.1495
     16 C16        -6.5897   -2.8540    0.6601 C.ar      1 <1>        -0.0142
     17 Br17       -6.7250   -4.1236   -0.7348 Br        1 <1>        -0.1168
     18 C18        -7.7108   -2.1633    1.0780 C.ar      1 <1>        -0.0758
     19 H19        -9.3288   -1.0266    3.3447 H         1 <1>         0.0558
     20 H20        -8.5413    0.5090    2.9086 H         1 <1>         0.0558
     21 H21        -9.5212   -0.3621    1.7047 H         1 <1>         0.0558
     22 H22        -6.3194   -0.2683    3.4994 H         1 <1>         0.1325
     23 H23        -4.3166   -1.4987    2.7692 H         1 <1>         0.1188
     24 H24        -4.2952   -3.9700    0.1382 H         1 <1>         0.2879
     25 H25        -2.6616   -2.0216    1.3679 H         1 <1>         0.1049
     26 H26        -3.0102   -3.2955    2.5612 H         1 <1>         0.1049
     27 H27        -2.3112   -5.6041    1.9536 H         1 <1>         0.3356
     28 H28        -0.2858   -2.6341    1.4799 H         1 <1>         0.1011
     29 H29        -0.5664   -4.0082    2.5759 H         1 <1>         0.0939
     30 H30        -8.6644   -2.3460    0.6050 H         1 <1>         0.1472
@<TRIPOS>BOND
     1    1    2 1
     2    1   19 1
     3    1   20 1
     4    1   21 1
     5    2   18 ar
     6    2    3 ar
     7    3    4 ar
     8    3   22 1
     9    4    5 ar
    10    4   23 1
    11    5    6 1
    12    5   16 ar
    13    6    7 1
    14    6   24 1
    15    7    8 1
    16    7   25 1
    17    7   26 1
    18    8    9 1
    19    8   10 1
    20    8   11 1
    21   10   27 1
    22   11   12 1
    23   11   28 1
    24   11   29 1
    25   12   13 1
    26   12   14 1
    27   12   15 1
    28   16   17 1
    29   16   18 ar
    30   18   30 1
@<TRIPOS>Similarity
1.0452
@<TRIPOS>ShapeSim
0.6755
@<TRIPOS>PharmSim
0.3698
# END
# Name:		C1[C@H]([C@H]([C@@H](C[C@@]1(C(=O)O)O)OC(=O)/C=C/C2=CC(=C(C=C2)O)O)O)O
# Created and modified by SHAFTS on Sun Mar 21 16:57:45 2021

# 

@<TRIPOS>MOLECULE
C1[C@H]([C@H]([C@@H](C[C@@]1(C(=O)O)O)OC(=O)/C=C/C2=CC(=C(C=C2)O)O)O)O
   42    43     0
SMALL
USER_CHARGE


@<TRIPOS>ATOM
      1 O1          1.4333   -2.5524   -0.2724 O.co2     1 <1>        -0.5000
      2 C2          1.1774   -3.6740    0.1316 C.2       1 <1>         0.4800
      3 O3          1.9329   -4.5983   -0.1164 O.co2     1 <1>        -0.5000
      4 C4         -0.0693   -3.9167    0.9425 C.3       1 <1>         0.0700
      5 O5         -0.7805   -2.6875    1.1021 O.3       1 <1>        -0.5400
      6 C6          0.3157   -4.4654    2.3179 C.3       1 <1>        -0.1600
      7 C7         -0.9502   -4.7117    3.1413 C.3       1 <1>         0.0800
      8 H8         -1.4926   -3.7741    3.2630 H         1 <1>         0.0700
      9 O9         -0.5906   -5.2242    4.4259 O.3       1 <1>        -0.5800
     10 C10        -1.8395   -5.7254    2.4185 C.3       1 <1>         0.1000
     11 H11        -1.2970   -6.6630    2.2968 H         1 <1>         0.0700
     12 O12        -3.0218   -5.9555    3.1875 O.3       1 <1>        -0.5500
     13 C13        -2.2245   -5.1767    1.0431 C.3       1 <1>         0.1100
     14 H14        -2.8580   -5.8988    0.5283 H         1 <1>         0.0900
     15 O15        -2.9357   -3.9476    1.2027 O.3       1 <1>        -0.3000
     16 C16        -4.2776   -4.0270    1.3195 C.2       1 <1>         0.4900
     17 O17        -4.8279   -5.1114    1.2866 O.2       1 <1>        -0.5100
     18 C18        -5.0463   -2.8466    1.4806 C.2       1 <1>        -0.1700
     19 C19        -6.3897   -2.9261    1.5975 C.2       1 <1>        -0.0200
     20 C20        -7.1865   -1.7026    1.7644 C.ar      1 <1>        -0.0600
     21 C21        -6.5561   -0.4537    1.7968 C.ar      1 <1>        -0.0900
     22 C22        -7.3055    0.6918    1.9535 C.ar      1 <1>        -0.1300
     23 C23        -8.6856    0.6109    2.0800 C.ar      1 <1>         0.0900
     24 O24        -9.4189    1.7436    2.2346 O.3       1 <1>        -0.4900
     25 C25        -9.3215   -0.6302    2.0483 C.ar      1 <1>         0.0800
     26 O26       -10.6738   -0.7045    2.1721 O.3       1 <1>        -0.4900
     27 C27        -8.5791   -1.7827    1.8858 C.ar      1 <1>        -0.1100
     28 C28        -0.9587   -4.9303    0.2197 C.3       1 <1>        -0.0900
     29 H29        -0.2762   -1.9971    1.5538 H         1 <1>         0.3600
     30 H30         0.8581   -5.4029    2.1962 H         1 <1>         0.0800
     31 H31         0.9492   -3.7433    2.8329 H         1 <1>         0.0600
     32 H32        -0.0256   -4.6325    4.9414 H         1 <1>         0.3800
     33 H33        -2.8529   -6.3045    4.0734 H         1 <1>         0.3800
     34 H34        -4.5577   -1.8838    1.5098 H         1 <1>         0.1400
     35 H35        -6.8783   -3.8888    1.5682 H         1 <1>         0.1400
     36 H36        -5.4825   -0.3877    1.6994 H         1 <1>         0.1400
     37 H37        -6.8179    1.6552    1.9783 H         1 <1>         0.1400
     38 H38        -9.7155    2.1368    1.4024 H         1 <1>         0.3900
     39 H39       -11.1488   -0.6607    1.3309 H         1 <1>         0.3900
     40 H40        -9.0704   -2.7442    1.8607 H         1 <1>         0.1400
     41 H41        -1.2329   -4.5395   -0.7601 H         1 <1>         0.0800
     42 H42        -0.4162   -5.8679    0.0981 H         1 <1>         0.1000
@<TRIPOS>BOND
     1    1    2 ar
     2    2    3 ar
     3    2    4 1
     4    4   28 1
     5    4    5 1
     6    4    6 1
     7    5   29 1
     8    6    7 1
     9    6   30 1
    10    6   31 1
    11    7    8 1
    12    7    9 1
    13    7   10 1
    14    9   32 1
    15   10   11 1
    16   10   12 1
    17   10   13 1
    18   12   33 1
    19   13   14 1
    20   13   15 1
    21   13   28 1
    22   15   16 1
    23   16   17 2
    24   16   18 1
    25   18   19 2
    26   18   34 1
    27   19   20 1
    28   19   35 1
    29   20   27 ar
    30   20   21 ar
    31   21   22 ar
    32   21   36 1
    33   22   23 ar
    34   22   37 1
    35   23   24 1
    36   23   25 ar
    37   24   38 1
    38   25   26 1
    39   25   27 ar
    40   26   39 1
    41   27   40 1
    42   28   41 1
    43   28   42 1
@<TRIPOS>Similarity
1.0449
@<TRIPOS>ShapeSim
0.7940
@<TRIPOS>PharmSim
0.2509
# END
# Name:		O=C(NC1=NC=C(C2CCC2)S1)NC3=C(C=NC=C4)C4=CC=C3
# Created and modified by SHAFTS on Sun Mar 21 16:57:45 2021

# 

@<TRIPOS>MOLECULE
O=C(NC1=NC=C(C2CCC2)S1)NC3=C(C=NC=C4)C4=CC=C3
   39    42     0
SMALL
USER_CHARGE


@<TRIPOS>ATOM
      1 O1         -3.1995   -2.6440    1.4695 O.2       1 <1>        -0.4308
      2 C2         -3.3218   -1.5688    0.9153 C.2       1 <1>         0.1701
      3 N3         -2.2387   -0.9410    0.4161 N.am      1 <1>        -0.2369
      4 C4         -0.9820   -1.5226    0.5349 C.2       1 <1>         0.0873
      5 N5         -0.7426   -2.6642    1.1004 N.2       1 <1>        -0.3655
      6 C6          0.5144   -3.0671    1.1246 C.2       1 <1>        -0.0338
      7 C7          1.3776   -2.2261    0.5526 C.2       1 <1>        -0.0175
      8 C8          2.8664   -2.4289    0.4367 C.3       1 <1>        -0.0446
      9 C9          3.4548   -1.9280   -0.8928 C.3       1 <1>        -0.0643
     10 C10         4.6487   -1.4050   -0.0769 C.3       1 <1>        -0.0692
     11 C11         3.6932   -1.3306    1.1258 C.3       1 <1>        -0.0650
     12 S12         0.4723   -0.8399   -0.0498 S.3       1 <1>        -0.0313
     13 N13        -4.5411   -1.0074    0.7951 N.am      1 <1>        -0.2765
     14 C14        -5.6757   -1.7106    1.2003 C.ar      1 <1>        -0.0242
     15 C15        -6.8470   -1.0202    1.5721 C.ar      1 <1>        -0.0097
     16 C16        -6.9237    0.3794    1.5521 C.ar      1 <1>        -0.0207
     17 N17        -8.0366    0.9793    1.9069 N.ar      1 <1>        -0.4037
     18 C18        -9.1179    0.3155    2.2925 C.ar      1 <1>        -0.0448
     19 C19        -9.1452   -1.0448    2.3463 C.ar      1 <1>        -0.0601
     20 C20        -7.9884   -1.7583    1.9804 C.ar      1 <1>        -0.0640
     21 C21        -7.9359   -3.1583    2.0081 C.ar      1 <1>        -0.0839
     22 C22        -6.7900   -3.8006    1.6431 C.ar      1 <1>        -0.0855
     23 C23        -5.6658   -3.0897    1.2361 C.ar      1 <1>        -0.0550
     24 H24        -2.3363   -0.0831   -0.0261 H         1 <1>         0.3520
     25 H25         0.8192   -4.0019    1.5716 H         1 <1>         0.2065
     26 H26         3.1776   -3.4398    0.7002 H         1 <1>         0.0931
     27 H27         3.7159   -2.7293   -1.5841 H         1 <1>         0.0521
     28 H28         2.8665   -1.1389   -1.3609 H         1 <1>         0.0521
     29 H29         5.4480   -2.1359    0.0450 H         1 <1>         0.0561
     30 H30         5.0107   -0.4315   -0.4078 H         1 <1>         0.0419
     31 H31         3.1701   -0.3780    1.2097 H         1 <1>         0.0539
     32 H32         4.1469   -1.6495    2.0642 H         1 <1>         0.0468
     33 H33        -4.6299   -0.1145    0.4268 H         1 <1>         0.3309
     34 H34        -6.0685    0.9635    1.2455 H         1 <1>         0.2050
     35 H35       -10.0019    0.8695    2.5723 H         1 <1>         0.1947
     36 H36       -10.0364   -1.5657    2.6637 H         1 <1>         0.1333
     37 H37        -8.8003   -3.7268    2.3179 H         1 <1>         0.1238
     38 H38        -6.7557   -4.8797    1.6670 H         1 <1>         0.1321
     39 H39        -4.7712   -3.6239    0.9520 H         1 <1>         0.1448
@<TRIPOS>BOND
     1    1    2 2
     2    2    3 am
     3    2   13 am
     4    3    4 1
     5    3   24 1
     6    4   12 1
     7    4    5 2
     8    5    6 1
     9    6    7 2
    10    6   25 1
    11    7    8 1
    12    7   12 1
    13    8   11 1
    14    8    9 1
    15    8   26 1
    16    9   10 1
    17    9   27 1
    18    9   28 1
    19   10   11 1
    20   10   29 1
    21   10   30 1
    22   11   31 1
    23   11   32 1
    24   13   14 1
    25   13   33 1
    26   14   23 ar
    27   14   15 ar
    28   15   20 ar
    29   15   16 ar
    30   16   17 ar
    31   16   34 1
    32   17   18 ar
    33   18   19 ar
    34   18   35 1
    35   19   20 ar
    36   19   36 1
    37   20   21 ar
    38   21   22 ar
    39   21   37 1
    40   22   23 ar
    41   22   38 1
    42   23   39 1
@<TRIPOS>Similarity
1.0440
@<TRIPOS>ShapeSim
0.6983
@<TRIPOS>PharmSim
0.3457
# END
# Name:		C1=CC=C2C(=C1)N=C3N2C(=O)C(=CC4=CC=C(O4)C5=CC=C(C=C5)N6C=NN=N6)S3
# Created and modified by SHAFTS on Sun Mar 21 16:57:45 2021

# 

@<TRIPOS>MOLECULE
C1=CC=C2C(=C1)N=C3N2C(=O)C(=CC4=CC=C(O4)C5=CC=C(C=C5)N6C=NN=N6)S3
   42    47     0
SMALL
USER_CHARGE


@<TRIPOS>ATOM
      1 O1         -2.0217   -4.9666    1.0387 O.2       1 <1>        -0.4294
      2 C2         -2.0635   -3.7532    1.1342 C.2       1 <1>         0.1702
      3 C3         -3.2877   -3.0714    1.2990 C.2       1 <1>         0.1337
      4 C4         -4.5396   -3.6123    1.3740 C.2       1 <1>         0.0164
      5 C5         -5.6615   -2.7737    1.5412 C.2       1 <1>         0.0418
      6 C6         -6.9779   -3.1893    1.6372 C.2       1 <1>        -0.0593
      7 C7         -7.7545   -2.0388    1.7936 C.2       1 <1>        -0.0561
      8 C8         -6.8910   -0.9664    1.7878 C.2       1 <1>         0.0361
      9 C9         -7.2767    0.4504    1.9265 C.ar      1 <1>        -0.0204
     10 C10        -8.6211    0.7984    2.0861 C.ar      1 <1>        -0.0506
     11 C11        -8.9770    2.1229    2.2151 C.ar      1 <1>        -0.0349
     12 C12        -8.0014    3.1128    2.1868 C.ar      1 <1>         0.0131
     13 N13        -8.3679    4.4586    2.3184 N.pl3     1 <1>        -0.2102
     14 C14        -7.5524    5.5357    2.3068 C.2       1 <1>         0.1032
     15 N15        -8.3051    6.5938    2.4593 N.2       1 <1>        -0.2228
     16 N16        -9.5403    6.2594    2.5664 N.2       1 <1>        -0.1332
     17 N17        -9.6636    4.9784    2.4847 N.2       1 <1>        -0.1482
     18 C18        -6.6634    2.7711    2.0288 C.ar      1 <1>        -0.0406
     19 C19        -6.2982    1.4485    1.9043 C.ar      1 <1>        -0.0558
     20 O20        -5.6355   -1.4280    1.6409 O.3       1 <1>        -0.3545
     21 S21        -2.8425   -1.3577    1.3879 S.3       1 <1>         0.0151
     22 C22        -1.1056   -1.6580    1.2046 C.2       1 <1>         0.1163
     23 N23         0.0540   -1.0487    1.1437 N.2       1 <1>        -0.3334
     24 C24         1.0413   -1.9657    0.9830 C.ar      1 <1>         0.0045
     25 C25         2.4307   -1.8717    0.8623 C.ar      1 <1>        -0.0492
     26 C26         3.1805   -3.0171    0.7065 C.ar      1 <1>        -0.0807
     27 C27         2.5691   -4.2607    0.6685 C.ar      1 <1>        -0.0841
     28 C28         1.1967   -4.3684    0.7862 C.ar      1 <1>        -0.0574
     29 C29         0.4312   -3.2265    0.9436 C.ar      1 <1>         0.0031
     30 N30        -0.9495   -3.0123    1.0927 N.am      1 <1>        -0.2381
     31 H31        -4.6706   -4.6822    1.3053 H         1 <1>         0.2305
     32 H32        -7.3362   -4.2075    1.5983 H         1 <1>         0.1558
     33 H33        -8.8286   -1.9982    1.8987 H         1 <1>         0.1433
     34 H34        -9.3797    0.0300    2.1078 H         1 <1>         0.1568
     35 H35       -10.0155    2.3927    2.3381 H         1 <1>         0.1552
     36 H36        -6.4785    5.5247    2.1934 H         1 <1>         0.3162
     37 H37        -5.9086    3.5432    2.0073 H         1 <1>         0.1496
     38 H38        -5.2584    1.1839    1.7816 H         1 <1>         0.1534
     39 H39         2.9139   -0.9063    0.8907 H         1 <1>         0.1517
     40 H40         4.2541   -2.9454    0.6129 H         1 <1>         0.1340
     41 H41         3.1690   -5.1503    0.5459 H         1 <1>         0.1367
     42 H42         0.7238   -5.3389    0.7554 H         1 <1>         0.1423
@<TRIPOS>BOND
     1    1    2 2
     2    2   30 am
     3    2    3 1
     4    3    4 2
     5    3   21 1
     6    4    5 1
     7    4   31 1
     8    5   20 1
     9    5    6 2
    10    6    7 1
    11    6   32 1
    12    7    8 2
    13    7   33 1
    14    8    9 1
    15    8   20 1
    16    9   19 ar
    17    9   10 ar
    18   10   11 ar
    19   10   34 1
    20   11   12 ar
    21   11   35 1
    22   12   13 1
    23   12   18 ar
    24   13   17 1
    25   13   14 1
    26   14   15 2
    27   14   36 1
    28   15   16 1
    29   16   17 2
    30   18   19 ar
    31   18   37 1
    32   19   38 1
    33   21   22 1
    34   22   30 1
    35   22   23 2
    36   23   24 1
    37   24   29 ar
    38   24   25 ar
    39   25   26 ar
    40   25   39 1
    41   26   27 ar
    42   26   40 1
    43   27   28 ar
    44   27   41 1
    45   28   29 ar
    46   28   42 1
    47   29   30 1
@<TRIPOS>Similarity
1.0433
@<TRIPOS>ShapeSim
0.7296
@<TRIPOS>PharmSim
0.3137
# END
# Name:		CN(CC1=NC=C(C=CC=C2)C2=C1CCCN(C)C)[C@@H]3C4=NC=CC=C4CCC3
# Created and modified by SHAFTS on Sun Mar 21 16:57:45 2021

# 

@<TRIPOS>MOLECULE
CN(CC1=NC=C(C=CC=C2)C2=C1CCCN(C)C)[C@@H]3C4=NC=CC=C4CCC3
   63    66     0
SMALL
USER_CHARGE


@<TRIPOS>ATOM
      1 C1         -4.5770   -3.7925    7.3305 C.3       1 <1>        -0.0937
      2 N2         -4.5433   -2.3255    7.4006 N.4       1 <1>         0.4081
      3 H3         -5.4612   -1.9789    7.6359 H         1 <1>         0.1632
      4 C4         -3.5829   -1.9064    8.4301 C.3       1 <1>        -0.0910
      5 C5         -4.1337   -1.7824    6.0987 C.3       1 <1>        -0.1039
      6 C6         -5.1980   -2.1131    5.0504 C.3       1 <1>        -0.0661
      7 C7         -4.7713   -1.5474    3.6944 C.3       1 <1>        -0.0365
      8 C8         -5.7556   -1.9789    2.6379 C.ar      1 <1>        -0.0767
      9 C9         -6.8525   -1.1643    2.3038 C.ar      1 <1>        -0.0687
     10 C10        -7.0832    0.0714    2.9254 C.ar      1 <1>        -0.0845
     11 C11        -8.1635    0.8154    2.5580 C.ar      1 <1>        -0.0878
     12 C12        -9.0432    0.3674    1.5741 C.ar      1 <1>        -0.0851
     13 C13        -8.8502   -0.8271    0.9494 C.ar      1 <1>        -0.0731
     14 C14        -7.7474   -1.6214    1.3013 C.ar      1 <1>        -0.0337
     15 C15        -7.4967   -2.8611    0.6919 C.ar      1 <1>        -0.0100
     16 N16        -6.4520   -3.5685    1.0541 N.ar      1 <1>        -0.3974
     17 C17        -5.5978   -3.1629    1.9834 C.ar      1 <1>        -0.0695
     18 C18        -4.4254   -4.0425    2.3340 C.3       1 <1>        -0.0449
     19 N19        -3.2524   -3.6295    1.5521 N.4       1 <1>         0.4152
     20 H20        -3.0868   -2.6437    1.6894 H         1 <1>         0.1791
     21 C21        -3.4966   -3.8913    0.1274 C.3       1 <1>        -0.0802
     22 C22        -2.0761   -4.3898    1.9951 C.3       1 <1>        -0.0609
     23 H23        -1.9353   -4.2426    3.0658 H         1 <1>         0.1267
     24 C24        -2.3018   -5.8744    1.7162 C.3       1 <1>        -0.0532
     25 C25        -0.9917   -6.6237    1.9856 C.3       1 <1>        -0.0526
     26 C26         0.0134   -6.2414    0.9005 C.3       1 <1>        -0.0325
     27 C27         0.1042   -4.7451    0.7681 C.ar      1 <1>        -0.0783
     28 C28         1.2129   -4.2135    0.1168 C.ar      1 <1>        -0.0760
     29 C29         1.3121   -2.8393   -0.0204 C.ar      1 <1>        -0.0577
     30 C30         0.3060   -2.0436    0.4934 C.ar      1 <1>        -0.0390
     31 N31        -0.7269   -2.5813    1.1054 N.ar      1 <1>        -0.4154
     32 C32        -0.8575   -3.8931    1.2604 C.ar      1 <1>        -0.0714
     33 H33        -3.5854   -4.1670    7.0762 H         1 <1>         0.0741
     34 H34        -4.8809   -4.1956    8.2966 H         1 <1>         0.0812
     35 H35        -5.2896   -4.1034    6.5666 H         1 <1>         0.0741
     36 H36        -2.5913   -2.2809    8.1758 H         1 <1>         0.0766
     37 H37        -3.5579   -0.8180    8.4821 H         1 <1>         0.0838
     38 H38        -3.8868   -2.3095    9.3962 H         1 <1>         0.0838
     39 H39        -4.0227   -0.7008    6.1749 H         1 <1>         0.0944
     40 H40        -3.1827   -2.2253    5.8031 H         1 <1>         0.0873
     41 H41        -5.3090   -3.1948    4.9741 H         1 <1>         0.0596
     42 H42        -6.1490   -1.6703    5.3459 H         1 <1>         0.0667
     43 H43        -4.7477   -0.4589    3.7460 H         1 <1>         0.0895
     44 H44        -3.7792   -1.9208    3.4407 H         1 <1>         0.0611
     45 H45        -6.4099    0.4303    3.6899 H         1 <1>         0.1233
     46 H46        -8.3413    1.7671    3.0366 H         1 <1>         0.1405
     47 H47        -9.8920    0.9775    1.3029 H         1 <1>         0.1359
     48 H48        -9.5405   -1.1610    0.1889 H         1 <1>         0.1478
     49 H49        -8.1625   -3.2322   -0.0732 H         1 <1>         0.2395
     50 H50        -4.2051   -3.9476    3.3973 H         1 <1>         0.1146
     51 H51        -4.6681   -5.0801    2.1044 H         1 <1>         0.1290
     52 H52        -4.2785   -3.2242   -0.2357 H         1 <1>         0.0803
     53 H53        -2.5800   -3.7174   -0.4363 H         1 <1>         0.0803
     54 H54        -3.8126   -4.9263   -0.0029 H         1 <1>         0.0874
     55 H55        -3.0837   -6.2557    2.3730 H         1 <1>         0.0706
     56 H56        -2.5948   -6.0111    0.6753 H         1 <1>         0.0706
     57 H57        -0.6015   -6.3412    2.9634 H         1 <1>         0.0578
     58 H58        -1.1711   -7.6984    1.9577 H         1 <1>         0.0720
     59 H59         0.9938   -6.6393    1.1622 H         1 <1>         0.0806
     60 H60        -0.3048   -6.6679   -0.0508 H         1 <1>         0.0806
     61 H61         1.9831   -4.8617   -0.2746 H         1 <1>         0.1496
     62 H62         2.1614   -2.3970   -0.5201 H         1 <1>         0.1446
     63 H63         0.3683   -0.9702    0.3919 H         1 <1>         0.2104
@<TRIPOS>BOND
     1    1    2 1
     2    1   33 1
     3    1   34 1
     4    1   35 1
     5    2    3 1
     6    2    4 1
     7    2    5 1
     8    4   36 1
     9    4   37 1
    10    4   38 1
    11    5    6 1
    12    5   39 1
    13    5   40 1
    14    6    7 1
    15    6   41 1
    16    6   42 1
    17    7    8 1
    18    7   43 1
    19    7   44 1
    20    8   17 ar
    21    8    9 ar
    22    9   14 ar
    23    9   10 ar
    24   10   11 ar
    25   10   45 1
    26   11   12 ar
    27   11   46 1
    28   12   13 ar
    29   12   47 1
    30   13   14 ar
    31   13   48 1
    32   14   15 ar
    33   15   16 ar
    34   15   49 1
    35   16   17 ar
    36   17   18 1
    37   18   19 1
    38   18   50 1
    39   18   51 1
    40   19   20 1
    41   19   21 1
    42   19   22 1
    43   21   52 1
    44   21   53 1
    45   21   54 1
    46   22   23 1
    47   22   32 1
    48   22   24 1
    49   24   25 1
    50   24   55 1
    51   24   56 1
    52   25   26 1
    53   25   57 1
    54   25   58 1
    55   26   27 1
    56   26   59 1
    57   26   60 1
    58   27   32 ar
    59   27   28 ar
    60   28   29 ar
    61   28   61 1
    62   29   30 ar
    63   29   62 1
    64   30   31 ar
    65   30   63 1
    66   31   32 ar
@<TRIPOS>Similarity
1.0433
@<TRIPOS>ShapeSim
0.7038
@<TRIPOS>PharmSim
0.3394
# END
# Name:		C1COC(CN1)CNC2=CC(=NC=C2C(F)(F)F)NC3=NC=C(N=C3)C#N
# Created and modified by SHAFTS on Sun Mar 21 16:57:45 2021

# 

@<TRIPOS>MOLECULE
C1COC(CN1)CNC2=CC(=NC=C2C(F)(F)F)NC3=NC=C(N=C3)C#N
   44    46     0
SMALL
USER_CHARGE


@<TRIPOS>ATOM
      1 N1          1.7618   -2.4258    1.7281 N.1       1 <1>        -0.3399
      2 C2          0.6594   -2.6974    1.6926 C.1       1 <1>         0.1176
      3 C3         -0.7304   -3.0398    1.6480 C.ar      1 <1>         0.1555
      4 C4         -1.1287   -4.2764    1.1390 C.ar      1 <1>         0.0557
      5 N5         -2.4099   -4.5928    1.1029 N.ar      1 <1>        -0.3341
      6 C6         -3.3195   -3.7305    1.5406 C.ar      1 <1>         0.0602
      7 N7         -4.6659   -4.0614    1.4972 N.pl3     1 <1>        -0.2824
      8 C8         -5.6313   -3.0628    1.5885 C.ar      1 <1>         0.0216
      9 C9         -6.9707   -3.4101    1.6936 C.ar      1 <1>         0.0068
     10 C10        -7.9250   -2.4005    1.7789 C.ar      1 <1>        -0.0369
     11 N11        -9.2792   -2.7058    1.8813 N.pl3     1 <1>        -0.3912
     12 C12        -9.7159   -4.1042    1.8943 C.3       1 <1>        -0.0076
     13 C13       -11.2401   -4.1614    2.0140 C.3       1 <1>         0.0065
     14 H14       -11.6915   -3.6495    1.1642 H         1 <1>         0.1272
     15 C15       -11.6968   -5.6223    2.0333 C.3       1 <1>        -0.0735
     16 N16       -13.1550   -5.6750    2.2067 N.4       1 <1>         0.4351
     17 H17       -13.6024   -5.1914    1.4425 H         1 <1>         0.1519
     18 H18       -13.4578   -6.6374    2.2195 H         1 <1>         0.1595
     19 C19       -13.5209   -5.0292    3.4750 C.3       1 <1>        -0.0814
     20 C20       -13.0598   -3.5698    3.4534 C.3       1 <1>        -0.0007
     21 O21       -11.6482   -3.5237    3.2275 O.3       1 <1>        -0.4568
     22 C22        -7.4897   -1.0737    1.7649 C.ar      1 <1>         0.0883
     23 C23        -8.4831    0.0554    1.8600 C.3       1 <1>         0.3513
     24 F24        -7.8041    1.2781    1.8254 F         1 <1>        -0.1905
     25 F25        -9.3730   -0.0144    0.7827 F         1 <1>        -0.1960
     26 F26        -9.1945   -0.0491    3.0601 F         1 <1>        -0.1960
     27 C27        -6.1413   -0.8090    1.6628 C.ar      1 <1>         0.0024
     28 N28        -5.2615   -1.7900    1.5789 N.ar      1 <1>        -0.3627
     29 C29        -2.9210   -2.4921    2.0504 C.ar      1 <1>         0.0610
     30 N30        -1.6444   -2.1771    2.0921 N.ar      1 <1>        -0.3165
     31 H31        -0.3890   -4.9761    0.7788 H         1 <1>         0.2496
     32 H32        -4.9346   -4.9887    1.4032 H         1 <1>         0.3536
     33 H33        -7.2685   -4.4481    1.7055 H         1 <1>         0.1372
     34 H34        -9.9338   -1.9928    1.9441 H         1 <1>         0.2964
     35 H35        -9.2652   -4.6177    2.7435 H         1 <1>         0.1209
     36 H36        -9.4056   -4.5903    0.9693 H         1 <1>         0.1280
     37 H37       -11.4251   -6.1007    1.0924 H         1 <1>         0.1029
     38 H38       -11.2133   -6.1435    2.8595 H         1 <1>         0.1029
     39 H39       -13.0374   -5.5512    4.3008 H         1 <1>         0.0920
     40 H40       -14.6026   -5.0669    3.6042 H         1 <1>         0.0991
     41 H41       -13.2909   -3.1009    4.4099 H         1 <1>         0.1544
     42 H42       -13.5741   -3.0374    2.6534 H         1 <1>         0.1038
     43 H43        -5.7991    0.2152    1.6515 H         1 <1>         0.2489
     44 H44        -3.6615   -1.7932    2.4106 H         1 <1>         0.2555
@<TRIPOS>BOND
     1    1    2 3
     2    2    3 1
     3    3   30 ar
     4    3    4 ar
     5    4    5 ar
     6    4   31 1
     7    5    6 ar
     8    6    7 1
     9    6   29 ar
    10    7    8 1
    11    7   32 1
    12    8   28 ar
    13    8    9 ar
    14    9   10 ar
    15    9   33 1
    16   10   11 1
    17   10   22 ar
    18   11   12 1
    19   11   34 1
    20   12   13 1
    21   12   35 1
    22   12   36 1
    23   13   14 1
    24   13   21 1
    25   13   15 1
    26   15   16 1
    27   15   37 1
    28   15   38 1
    29   16   17 1
    30   16   18 1
    31   16   19 1
    32   19   20 1
    33   19   39 1
    34   19   40 1
    35   20   21 1
    36   20   41 1
    37   20   42 1
    38   22   23 1
    39   22   27 ar
    40   23   24 1
    41   23   25 1
    42   23   26 1
    43   27   28 ar
    44   27   43 1
    45   29   30 ar
    46   29   44 1
@<TRIPOS>Similarity
1.0426
@<TRIPOS>ShapeSim
0.6831
@<TRIPOS>PharmSim
0.3595
# END
# Name:		CC1=CC=C(O1)C2=NC3=CC=CC=C3C(=C2)C(=O)N4CCN(CC4)C(=O)C
# Created and modified by SHAFTS on Sun Mar 21 16:57:45 2021

# 

@<TRIPOS>MOLECULE
CC1=CC=C(O1)C2=NC3=CC=CC=C3C(=C2)C(=O)N4CCN(CC4)C(=O)C
   48    51     0
SMALL
USER_CHARGE


@<TRIPOS>ATOM
      1 C1        -13.0833   -6.8407   -2.2365 C.3       1 <1>         0.0495
      2 C2        -11.7973   -6.0683   -2.3799 C.2       1 <1>         0.0708
      3 O3        -11.1098   -6.2134   -3.3685 O.2       1 <1>        -0.4982
      4 N4        -11.4112   -5.2162   -1.4098 N.am      1 <1>        -0.3576
      5 C5        -12.2311   -5.0348   -0.2036 C.3       1 <1>         0.0020
      6 C6        -11.3591   -5.3096    1.0277 C.3       1 <1>         0.0070
      7 N7        -10.1103   -4.5457    0.8988 N.am      1 <1>        -0.3357
      8 C8         -9.7237   -3.6943    1.8694 C.2       1 <1>         0.1364
      9 O9        -10.4584   -3.4736    2.8122 O.2       1 <1>        -0.4581
     10 C10        -8.4055   -3.0285    1.7873 C.ar      1 <1>         0.0629
     11 C11        -8.2814   -1.5731    1.8796 C.ar      1 <1>        -0.0120
     12 C12        -9.4023   -0.7537    2.0495 C.ar      1 <1>        -0.0759
     13 C13        -9.2427    0.5981    2.1312 C.ar      1 <1>        -0.0910
     14 C14        -7.9771    1.1739    2.0471 C.ar      1 <1>        -0.0826
     15 C15        -6.8655    0.4060    1.8814 C.ar      1 <1>        -0.0483
     16 C16        -6.9906   -0.9930    1.7938 C.ar      1 <1>        -0.0085
     17 N17        -5.9188   -1.7705    1.6319 N.ar      1 <1>        -0.3545
     18 C18        -6.0075   -3.0841    1.5472 C.ar      1 <1>         0.0359
     19 C19        -4.7730   -3.8716    1.3684 C.2       1 <1>         0.0604
     20 C20        -3.5101   -3.3700    1.2841 C.2       1 <1>        -0.0638
     21 C21        -2.6477   -4.4697    1.1177 C.2       1 <1>        -0.0856
     22 C22        -3.4166   -5.5777    1.1085 C.2       1 <1>        -0.0167
     23 C23        -2.9182   -6.9915    0.9545 C.3       1 <1>        -0.0048
     24 O24        -4.6985   -5.2131    1.2660 O.3       1 <1>        -0.3685
     25 C25        -7.2384   -3.7588    1.6256 C.ar      1 <1>         0.0028
     26 C26        -9.2904   -4.7271   -0.3073 C.3       1 <1>         0.0052
     27 C27       -10.1596   -4.4564   -1.5361 C.3       1 <1>         0.0004
     28 H28       -12.8842   -7.7883   -1.7359 H         1 <1>         0.0938
     29 H29       -13.7921   -6.2599   -1.6462 H         1 <1>         0.0794
     30 H30       -13.5039   -7.0326   -3.2236 H         1 <1>         0.0938
     31 H31       -12.6051   -4.0117   -0.1661 H         1 <1>         0.1098
     32 H32       -13.0684   -5.7325   -0.2222 H         1 <1>         0.1314
     33 H33       -11.8882   -4.9967    1.9278 H         1 <1>         0.1342
     34 H34       -11.1324   -6.3743    1.0851 H         1 <1>         0.1125
     35 H35       -10.3884   -1.1893    2.1152 H         1 <1>         0.1311
     36 H36       -10.1085    1.2303    2.2623 H         1 <1>         0.1268
     37 H37        -7.8761    2.2470    2.1141 H         1 <1>         0.1351
     38 H38        -5.8916    0.8685    1.8173 H         1 <1>         0.1475
     39 H39        -3.2254   -2.3295    1.3347 H         1 <1>         0.1437
     40 H40        -1.5731   -4.4331    1.0162 H         1 <1>         0.1235
     41 H41        -2.6999   -7.4089    1.9374 H         1 <1>         0.0848
     42 H42        -3.6827   -7.5950    0.4651 H         1 <1>         0.0776
     43 H43        -2.0115   -6.9933    0.3495 H         1 <1>         0.0848
     44 H44        -7.2750   -4.8358    1.5527 H         1 <1>         0.1569
     45 H45        -8.4531   -4.0294   -0.2888 H         1 <1>         0.1248
     46 H46        -8.9163   -5.7502   -0.3449 H         1 <1>         0.1104
     47 H47        -9.6294   -4.7698   -2.4354 H         1 <1>         0.1329
     48 H48       -10.3882   -3.3923   -1.5953 H         1 <1>         0.1040
@<TRIPOS>BOND
     1    1    2 1
     2    1   28 1
     3    1   29 1
     4    1   30 1
     5    2    3 2
     6    2    4 am
     7    4   27 1
     8    4    5 1
     9    5    6 1
    10    5   31 1
    11    5   32 1
    12    6    7 1
    13    6   33 1
    14    6   34 1
    15    7    8 am
    16    7   26 1
    17    8    9 2
    18    8   10 1
    19   10   25 ar
    20   10   11 ar
    21   11   16 ar
    22   11   12 ar
    23   12   13 ar
    24   12   35 1
    25   13   14 ar
    26   13   36 1
    27   14   15 ar
    28   14   37 1
    29   15   16 ar
    30   15   38 1
    31   16   17 ar
    32   17   18 ar
    33   18   19 1
    34   18   25 ar
    35   19   24 1
    36   19   20 2
    37   20   21 1
    38   20   39 1
    39   21   22 2
    40   21   40 1
    41   22   23 1
    42   22   24 1
    43   23   41 1
    44   23   42 1
    45   23   43 1
    46   25   44 1
    47   26   27 1
    48   26   45 1
    49   26   46 1
    50   27   47 1
    51   27   48 1
@<TRIPOS>Similarity
1.0411
@<TRIPOS>ShapeSim
0.5685
@<TRIPOS>PharmSim
0.4725
# END
# Name:		C1C(OC2=CC(=CC(=C2C1=O)O)O)C3=CC=C(C=C3)O
# Created and modified by SHAFTS on Sun Mar 21 16:57:45 2021

# 

@<TRIPOS>MOLECULE
C1C(OC2=CC(=CC(=C2C1=O)O)O)C3=CC=C(C=C3)O
   32    34     0
SMALL
USER_CHARGE


@<TRIPOS>ATOM
      1 O1         -8.7549   -4.4230    1.9375 O.2       1 <1>        -0.4549
      2 C2         -7.8536   -3.6119    1.9935 C.2       1 <1>         0.0866
      3 C3         -6.3994   -4.0394    2.0786 C.3       1 <1>         0.0706
      4 C4         -5.5932   -3.0891    1.1813 C.3       1 <1>         0.0635
      5 H5         -5.9401   -3.1790    0.1519 H         1 <1>         0.1402
      6 C6         -4.1316   -3.4487    1.2527 C.ar      1 <1>        -0.0645
      7 C7         -3.3701   -3.0318    2.3289 C.ar      1 <1>        -0.0822
      8 C8         -2.0299   -3.3603    2.3968 C.ar      1 <1>        -0.0655
      9 C9         -1.4484   -4.1093    1.3841 C.ar      1 <1>        -0.0394
     10 O10        -0.1303   -4.4340    1.4488 O.3       1 <1>        -0.4395
     11 C11        -2.2147   -4.5267    0.3057 C.ar      1 <1>        -0.0649
     12 C12        -3.5556   -4.1998    0.2448 C.ar      1 <1>        -0.0828
     13 O13        -5.7766   -1.7465    1.6303 O.3       1 <1>        -0.3858
     14 C14        -7.0381   -1.2812    1.7884 C.ar      1 <1>         0.0330
     15 C15        -7.2804    0.0806    1.7615 C.ar      1 <1>        -0.0094
     16 C16        -8.5718    0.5642    1.9307 C.ar      1 <1>        -0.0128
     17 O17        -8.7968    1.9019    1.9018 O.3       1 <1>        -0.4242
     18 C18        -9.6350   -0.3075    2.1289 C.ar      1 <1>        -0.0189
     19 C19        -9.4156   -1.6735    2.1563 C.ar      1 <1>        -0.0008
     20 O20       -10.4506   -2.5278    2.3507 O.3       1 <1>        -0.4187
     21 C21        -8.1134   -2.1681    1.9760 C.ar      1 <1>         0.0588
     22 H22        -6.0498   -3.9636    3.1083 H         1 <1>         0.1104
     23 H23        -6.2925   -5.0646    1.7240 H         1 <1>         0.1104
     24 H24        -3.8233   -2.4487    3.1170 H         1 <1>         0.1330
     25 H25        -1.4354   -3.0338    3.2373 H         1 <1>         0.1246
     26 H26         0.0469   -5.2708    1.8998 H         1 <1>         0.3541
     27 H27        -1.7641   -5.1096   -0.4841 H         1 <1>         0.1267
     28 H28        -4.1526   -4.5248   -0.5944 H         1 <1>         0.1309
     29 H29        -6.4630    0.7698    1.6089 H         1 <1>         0.1440
     30 H30        -8.9917    2.2489    1.0204 H         1 <1>         0.3676
     31 H31       -10.6339    0.0811    2.2615 H         1 <1>         0.1388
     32 H32       -10.8826   -2.8144    1.5345 H         1 <1>         0.3710
@<TRIPOS>BOND
     1    1    2 2
     2    2   21 1
     3    2    3 1
     4    3    4 1
     5    3   22 1
     6    3   23 1
     7    4    5 1
     8    4    6 1
     9    4   13 1
    10    6   12 ar
    11    6    7 ar
    12    7    8 ar
    13    7   24 1
    14    8    9 ar
    15    8   25 1
    16    9   10 1
    17    9   11 ar
    18   10   26 1
    19   11   12 ar
    20   11   27 1
    21   12   28 1
    22   13   14 1
    23   14   21 ar
    24   14   15 ar
    25   15   16 ar
    26   15   29 1
    27   16   17 1
    28   16   18 ar
    29   17   30 1
    30   18   19 ar
    31   18   31 1
    32   19   20 1
    33   19   21 ar
    34   20   32 1
@<TRIPOS>Similarity
1.0408
@<TRIPOS>ShapeSim
0.7182
@<TRIPOS>PharmSim
0.3226
# END
# Name:		C1C(OC2=CC(=CC(=C2C1=O)O)O)C3=CC=C(C=C3)O
# Created and modified by SHAFTS on Sun Mar 21 16:57:45 2021

# 

@<TRIPOS>MOLECULE
C1C(OC2=CC(=CC(=C2C1=O)O)O)C3=CC=C(C=C3)O
   32    34     0
SMALL
USER_CHARGE


@<TRIPOS>ATOM
      1 O1         -8.7549   -4.4230    1.9375 O.2       1 <1>        -0.4549
      2 C2         -7.8536   -3.6119    1.9935 C.2       1 <1>         0.0866
      3 C3         -6.3994   -4.0394    2.0786 C.3       1 <1>         0.0706
      4 C4         -5.5932   -3.0891    1.1813 C.3       1 <1>         0.0635
      5 H5         -5.9401   -3.1790    0.1519 H         1 <1>         0.1402
      6 C6         -4.1316   -3.4487    1.2527 C.ar      1 <1>        -0.0645
      7 C7         -3.3701   -3.0318    2.3289 C.ar      1 <1>        -0.0822
      8 C8         -2.0299   -3.3603    2.3968 C.ar      1 <1>        -0.0655
      9 C9         -1.4484   -4.1093    1.3841 C.ar      1 <1>        -0.0394
     10 O10        -0.1303   -4.4340    1.4488 O.3       1 <1>        -0.4395
     11 C11        -2.2147   -4.5267    0.3057 C.ar      1 <1>        -0.0649
     12 C12        -3.5556   -4.1998    0.2448 C.ar      1 <1>        -0.0828
     13 O13        -5.7766   -1.7465    1.6303 O.3       1 <1>        -0.3858
     14 C14        -7.0381   -1.2812    1.7884 C.ar      1 <1>         0.0330
     15 C15        -7.2804    0.0806    1.7615 C.ar      1 <1>        -0.0094
     16 C16        -8.5718    0.5642    1.9307 C.ar      1 <1>        -0.0128
     17 O17        -8.7968    1.9019    1.9018 O.3       1 <1>        -0.4242
     18 C18        -9.6350   -0.3075    2.1289 C.ar      1 <1>        -0.0189
     19 C19        -9.4156   -1.6735    2.1563 C.ar      1 <1>        -0.0008
     20 O20       -10.4506   -2.5278    2.3507 O.3       1 <1>        -0.4187
     21 C21        -8.1134   -2.1681    1.9760 C.ar      1 <1>         0.0588
     22 H22        -6.0498   -3.9636    3.1083 H         1 <1>         0.1104
     23 H23        -6.2925   -5.0646    1.7240 H         1 <1>         0.1104
     24 H24        -3.8233   -2.4487    3.1170 H         1 <1>         0.1330
     25 H25        -1.4354   -3.0338    3.2373 H         1 <1>         0.1246
     26 H26         0.0469   -5.2708    1.8998 H         1 <1>         0.3541
     27 H27        -1.7641   -5.1096   -0.4841 H         1 <1>         0.1267
     28 H28        -4.1526   -4.5248   -0.5944 H         1 <1>         0.1309
     29 H29        -6.4630    0.7698    1.6089 H         1 <1>         0.1440
     30 H30        -8.9917    2.2489    1.0204 H         1 <1>         0.3676
     31 H31       -10.6339    0.0811    2.2615 H         1 <1>         0.1388
     32 H32       -10.8826   -2.8144    1.5345 H         1 <1>         0.3710
@<TRIPOS>BOND
     1    1    2 2
     2    2   21 1
     3    2    3 1
     4    3    4 1
     5    3   22 1
     6    3   23 1
     7    4    5 1
     8    4    6 1
     9    4   13 1
    10    6   12 ar
    11    6    7 ar
    12    7    8 ar
    13    7   24 1
    14    8    9 ar
    15    8   25 1
    16    9   10 1
    17    9   11 ar
    18   10   26 1
    19   11   12 ar
    20   11   27 1
    21   12   28 1
    22   13   14 1
    23   14   21 ar
    24   14   15 ar
    25   15   16 ar
    26   15   29 1
    27   16   17 1
    28   16   18 ar
    29   17   30 1
    30   18   19 ar
    31   18   31 1
    32   19   20 1
    33   19   21 ar
    34   20   32 1
@<TRIPOS>Similarity
1.0408
@<TRIPOS>ShapeSim
0.7182
@<TRIPOS>PharmSim
0.3226
# END
# Name:		O=C1C=C(OC2=CC(O)=CC(O)=C21)C3=CC(O)=C(O)C=C3
# Created and modified by SHAFTS on Sun Mar 21 16:57:45 2021

# 

@<TRIPOS>MOLECULE
O=C1C=C(OC2=CC(O)=CC(O)=C21)C3=CC(O)=C(O)C=C3
   30    32     0
SMALL
USER_CHARGE


@<TRIPOS>ATOM
      1 O1         -8.8710   -4.2753    1.7299 O.2       1 <1>        -0.4956
      2 C2         -7.9123   -3.5208    1.6970 C.2       1 <1>         0.0593
      3 C3         -6.5951   -4.0122    1.5370 C.2       1 <1>         0.0116
      4 C4         -5.5526   -3.1390    1.5054 C.2       1 <1>         0.0471
      5 C5         -4.1869   -3.6705    1.3379 C.ar      1 <1>        -0.0175
      6 C6         -3.9820   -5.0465    1.2096 C.ar      1 <1>        -0.0660
      7 C7         -2.7049   -5.5415    1.0533 C.ar      1 <1>        -0.0541
      8 C8         -1.6206   -4.6759    1.0229 C.ar      1 <1>        -0.0025
      9 O9         -0.3642   -5.1687    0.8685 O.3       1 <1>        -0.4306
     10 C10        -1.8178   -3.3015    1.1499 C.ar      1 <1>         0.0053
     11 O11        -0.7530   -2.4560    1.1192 O.3       1 <1>        -0.4263
     12 C12        -3.0950   -2.7981    1.3015 C.ar      1 <1>        -0.0303
     13 O13        -5.7193   -1.8117    1.6201 O.3       1 <1>        -0.3440
     14 C14        -6.9364   -1.2488    1.7758 C.ar      1 <1>         0.0275
     15 C15        -7.0728    0.1256    1.8912 C.ar      1 <1>        -0.0279
     16 C16        -8.3305    0.6871    2.0511 C.ar      1 <1>        -0.0607
     17 O17        -8.4557    2.0342    2.1638 O.3       1 <1>        -0.5656
     18 C18        -9.4645   -0.1159    2.0968 C.ar      1 <1>        -0.0342
     19 C19        -9.3484   -1.4892    1.9830 C.ar      1 <1>        -0.0241
     20 O20       -10.4541   -2.2749    2.0269 O.3       1 <1>        -0.4308
     21 C21        -8.0819   -2.0626    1.8159 C.ar      1 <1>         0.0344
     22 H22        -6.4185   -5.0733    1.4412 H         1 <1>         0.1273
     23 H23        -4.8239   -5.7225    1.2332 H         1 <1>         0.1415
     24 H24        -2.5477   -6.6055    0.9545 H         1 <1>         0.1365
     25 H25        -0.0807   -5.2417   -0.0531 H         1 <1>         0.3567
     26 H26        -0.5255   -2.1421    0.2333 H         1 <1>         0.3594
     27 H27        -3.2493   -1.7336    1.3996 H         1 <1>         0.1562
     28 H28        -6.1991    0.7594    1.8568 H         1 <1>         0.1029
     29 H29       -10.4384    0.3339    2.2219 H         1 <1>         0.1034
     30 H30       -10.8561   -2.4367    1.1625 H         1 <1>         0.3510
@<TRIPOS>BOND
     1    1    2 2
     2    2   21 1
     3    2    3 1
     4    3    4 2
     5    3   22 1
     6    4    5 1
     7    4   13 1
     8    5   12 ar
     9    5    6 ar
    10    6    7 ar
    11    6   23 1
    12    7    8 ar
    13    7   24 1
    14    8    9 1
    15    8   10 ar
    16    9   25 1
    17   10   11 1
    18   10   12 ar
    19   11   26 1
    20   12   27 1
    21   13   14 1
    22   14   21 ar
    23   14   15 ar
    24   15   16 ar
    25   15   28 1
    26   16   17 1
    27   16   18 ar
    28   18   19 ar
    29   18   29 1
    30   19   20 1
    31   19   21 ar
    32   20   30 1
@<TRIPOS>Similarity
1.0405
@<TRIPOS>ShapeSim
0.7623
@<TRIPOS>PharmSim
0.2782
# END
# Name:		C1=CC(=C(C=C1C2=CC(=O)C3=C(C=C(C=C3O2)O)O)O)O
# Created and modified by SHAFTS on Sun Mar 21 16:57:45 2021

# 

@<TRIPOS>MOLECULE
C1=CC(=C(C=C1C2=CC(=O)C3=C(C=C(C=C3O2)O)O)O)O
   30    32     0
SMALL
USER_CHARGE


@<TRIPOS>ATOM
      1 O1         -8.8710   -4.2753    1.7299 O.2       1 <1>        -0.4956
      2 C2         -7.9123   -3.5208    1.6970 C.2       1 <1>         0.0593
      3 C3         -6.5951   -4.0122    1.5370 C.2       1 <1>         0.0116
      4 C4         -5.5526   -3.1390    1.5054 C.2       1 <1>         0.0471
      5 C5         -4.1869   -3.6705    1.3379 C.ar      1 <1>        -0.0175
      6 C6         -3.9820   -5.0465    1.2096 C.ar      1 <1>        -0.0660
      7 C7         -2.7049   -5.5415    1.0533 C.ar      1 <1>        -0.0541
      8 C8         -1.6206   -4.6759    1.0229 C.ar      1 <1>        -0.0025
      9 O9         -0.3642   -5.1687    0.8685 O.3       1 <1>        -0.4306
     10 C10        -1.8178   -3.3015    1.1499 C.ar      1 <1>         0.0053
     11 O11        -0.7530   -2.4560    1.1192 O.3       1 <1>        -0.4263
     12 C12        -3.0950   -2.7981    1.3015 C.ar      1 <1>        -0.0303
     13 O13        -5.7193   -1.8117    1.6201 O.3       1 <1>        -0.3440
     14 C14        -6.9364   -1.2488    1.7758 C.ar      1 <1>         0.0275
     15 C15        -7.0728    0.1256    1.8912 C.ar      1 <1>        -0.0279
     16 C16        -8.3305    0.6871    2.0511 C.ar      1 <1>        -0.0607
     17 O17        -8.4557    2.0342    2.1638 O.3       1 <1>        -0.5656
     18 C18        -9.4645   -0.1159    2.0968 C.ar      1 <1>        -0.0342
     19 C19        -9.3484   -1.4892    1.9830 C.ar      1 <1>        -0.0241
     20 O20       -10.4541   -2.2749    2.0269 O.3       1 <1>        -0.4308
     21 C21        -8.0819   -2.0626    1.8159 C.ar      1 <1>         0.0344
     22 H22        -6.4185   -5.0733    1.4412 H         1 <1>         0.1273
     23 H23        -4.8239   -5.7225    1.2332 H         1 <1>         0.1415
     24 H24        -2.5477   -6.6055    0.9545 H         1 <1>         0.1365
     25 H25        -0.0807   -5.2417   -0.0531 H         1 <1>         0.3567
     26 H26        -0.5255   -2.1421    0.2333 H         1 <1>         0.3594
     27 H27        -3.2493   -1.7336    1.3996 H         1 <1>         0.1562
     28 H28        -6.1991    0.7594    1.8568 H         1 <1>         0.1029
     29 H29       -10.4384    0.3339    2.2219 H         1 <1>         0.1034
     30 H30       -10.8561   -2.4367    1.1625 H         1 <1>         0.3510
@<TRIPOS>BOND
     1    1    2 2
     2    2   21 1
     3    2    3 1
     4    3    4 2
     5    3   22 1
     6    4    5 1
     7    4   13 1
     8    5   12 ar
     9    5    6 ar
    10    6    7 ar
    11    6   23 1
    12    7    8 ar
    13    7   24 1
    14    8    9 1
    15    8   10 ar
    16    9   25 1
    17   10   11 1
    18   10   12 ar
    19   11   26 1
    20   12   27 1
    21   13   14 1
    22   14   21 ar
    23   14   15 ar
    24   15   16 ar
    25   15   28 1
    26   16   17 1
    27   16   18 ar
    28   18   19 ar
    29   18   29 1
    30   19   20 1
    31   19   21 ar
    32   20   30 1
@<TRIPOS>Similarity
1.0405
@<TRIPOS>ShapeSim
0.7623
@<TRIPOS>PharmSim
0.2782
# END
# Name:		C1=CC(=C(C=C1C2=CC(=O)C3=C(C=C(C=C3O2)O)O)O)O
# Created and modified by SHAFTS on Sun Mar 21 16:57:45 2021

# 

@<TRIPOS>MOLECULE
C1=CC(=C(C=C1C2=CC(=O)C3=C(C=C(C=C3O2)O)O)O)O
   30    32     0
SMALL
USER_CHARGE


@<TRIPOS>ATOM
      1 O1         -8.8710   -4.2753    1.7299 O.2       1 <1>        -0.4956
      2 C2         -7.9123   -3.5208    1.6970 C.2       1 <1>         0.0593
      3 C3         -6.5951   -4.0122    1.5370 C.2       1 <1>         0.0116
      4 C4         -5.5526   -3.1390    1.5054 C.2       1 <1>         0.0471
      5 C5         -4.1869   -3.6705    1.3379 C.ar      1 <1>        -0.0175
      6 C6         -3.9820   -5.0465    1.2096 C.ar      1 <1>        -0.0660
      7 C7         -2.7049   -5.5415    1.0533 C.ar      1 <1>        -0.0541
      8 C8         -1.6206   -4.6759    1.0229 C.ar      1 <1>        -0.0025
      9 O9         -0.3642   -5.1687    0.8685 O.3       1 <1>        -0.4306
     10 C10        -1.8178   -3.3015    1.1499 C.ar      1 <1>         0.0053
     11 O11        -0.7530   -2.4560    1.1192 O.3       1 <1>        -0.4263
     12 C12        -3.0950   -2.7981    1.3015 C.ar      1 <1>        -0.0303
     13 O13        -5.7193   -1.8117    1.6201 O.3       1 <1>        -0.3440
     14 C14        -6.9364   -1.2488    1.7758 C.ar      1 <1>         0.0275
     15 C15        -7.0728    0.1256    1.8912 C.ar      1 <1>        -0.0279
     16 C16        -8.3305    0.6871    2.0511 C.ar      1 <1>        -0.0607
     17 O17        -8.4557    2.0342    2.1638 O.3       1 <1>        -0.5656
     18 C18        -9.4645   -0.1159    2.0968 C.ar      1 <1>        -0.0342
     19 C19        -9.3484   -1.4892    1.9830 C.ar      1 <1>        -0.0241
     20 O20       -10.4541   -2.2749    2.0269 O.3       1 <1>        -0.4308
     21 C21        -8.0819   -2.0626    1.8159 C.ar      1 <1>         0.0344
     22 H22        -6.4185   -5.0733    1.4412 H         1 <1>         0.1273
     23 H23        -4.8239   -5.7225    1.2332 H         1 <1>         0.1415
     24 H24        -2.5477   -6.6055    0.9545 H         1 <1>         0.1365
     25 H25        -0.0807   -5.2417   -0.0531 H         1 <1>         0.3567
     26 H26        -0.5255   -2.1421    0.2333 H         1 <1>         0.3594
     27 H27        -3.2493   -1.7336    1.3996 H         1 <1>         0.1562
     28 H28        -6.1991    0.7594    1.8568 H         1 <1>         0.1029
     29 H29       -10.4384    0.3339    2.2219 H         1 <1>         0.1034
     30 H30       -10.8561   -2.4367    1.1625 H         1 <1>         0.3510
@<TRIPOS>BOND
     1    1    2 2
     2    2   21 1
     3    2    3 1
     4    3    4 2
     5    3   22 1
     6    4    5 1
     7    4   13 1
     8    5   12 ar
     9    5    6 ar
    10    6    7 ar
    11    6   23 1
    12    7    8 ar
    13    7   24 1
    14    8    9 1
    15    8   10 ar
    16    9   25 1
    17   10   11 1
    18   10   12 ar
    19   11   26 1
    20   12   27 1
    21   13   14 1
    22   14   21 ar
    23   14   15 ar
    24   15   16 ar
    25   15   28 1
    26   16   17 1
    27   16   18 ar
    28   18   19 ar
    29   18   29 1
    30   19   20 1
    31   19   21 ar
    32   20   30 1
@<TRIPOS>Similarity
1.0405
@<TRIPOS>ShapeSim
0.7623
@<TRIPOS>PharmSim
0.2782
# END
# Name:		N1(CCOCC1)C2=C3SC=CC3=NC(C4=C5C=NNC5=CC=C4)=N2
# Created and modified by SHAFTS on Sun Mar 21 16:57:45 2021

# 

@<TRIPOS>MOLECULE
N1(CCOCC1)C2=C3SC=CC3=NC(C4=C5C=NNC5=CC=C4)=N2
   39    43     0
SMALL
USER_CHARGE


@<TRIPOS>ATOM
      1 C1         -8.5996    0.3964    2.0524 C.2       1 <1>        -0.0191
      2 C2         -7.2876    0.2893    1.9222 C.2       1 <1>        -0.0430
      3 C3         -6.7987   -1.0658    1.7763 C.ar      1 <1>        -0.0108
      4 N4         -5.5367   -1.5211    1.6247 N.ar      1 <1>        -0.3489
      5 C5         -5.2892   -2.8110    1.5056 C.ar      1 <1>         0.0620
      6 C6         -3.8880   -3.2576    1.3416 C.ar      1 <1>         0.0242
      7 C7         -3.5860   -4.5987    1.2078 C.ar      1 <1>        -0.0486
      8 C8         -2.2724   -5.0328    1.0529 C.ar      1 <1>        -0.0714
      9 C9         -1.2188   -4.1798    1.0230 C.ar      1 <1>        -0.0479
     10 C10        -1.4188   -2.7892    1.1510 C.ar      1 <1>        -0.0047
     11 N11        -0.6255   -1.7329    1.1612 N.2       1 <1>        -0.3499
     12 N12        -1.4048   -0.5816    1.3235 N.pl3     1 <1>        -0.3080
     13 C13        -2.7004   -0.9166    1.4163 C.2       1 <1>        -0.0180
     14 C14        -2.7922   -2.2868    1.3116 C.ar      1 <1>        -0.0009
     15 N15        -6.2562   -3.7245    1.5284 N.ar      1 <1>        -0.3570
     16 C16        -7.5237   -3.3660    1.6734 C.ar      1 <1>        -0.1208
     17 N17        -8.5260   -4.3223    1.6966 N.3       1 <1>         0.3934
     18 C18        -9.3211   -4.2221    2.9292 C.3       1 <1>        -0.1218
     19 C19       -10.4508   -5.2545    2.8865 C.3       1 <1>        -0.0073
     20 O20        -9.8917   -6.5586    2.7073 O.3       1 <1>        -0.4611
     21 C21        -9.1115   -6.6917    1.5162 C.3       1 <1>        -0.0086
     22 C22        -7.9682   -5.6740    1.5450 C.3       1 <1>        -0.1219
     23 C23        -7.8369   -2.0007    1.8037 C.ar      1 <1>         0.0320
     24 S24        -9.3746   -1.1762    2.0080 S.3       1 <1>        -0.0999
     25 H25        -9.1255    1.3318    2.1748 H         1 <1>         0.1674
     26 H26        -6.6312    1.1470    1.9243 H         1 <1>         0.1554
     27 H27        -4.3850   -5.3251    1.2241 H         1 <1>         0.1464
     28 H28        -2.0850   -6.0918    0.9526 H         1 <1>         0.1321
     29 H29        -0.2185   -4.5680    0.9009 H         1 <1>         0.1438
     30 H30        -1.0593    0.3240    1.3636 H         1 <1>         0.3872
     31 H31        -3.5260   -0.2325    1.5466 H         1 <1>         0.2313
     32 H32        -8.6826   -4.4167    3.7910 H         1 <1>         0.0510
     33 H33        -9.7453   -3.2213    3.0083 H         1 <1>         0.0725
     34 H34       -11.0081   -5.2230    3.8228 H         1 <1>         0.1333
     35 H35       -11.1197   -5.0280    2.0562 H         1 <1>         0.1043
     36 H36        -8.7003   -7.6997    1.4612 H         1 <1>         0.1312
     37 H37        -9.7415   -6.5070    0.6459 H         1 <1>         0.0950
     38 H38        -7.4050   -5.7329    0.6136 H         1 <1>         0.0743
     39 H39        -7.3081   -5.8917    2.3846 H         1 <1>         0.0528
@<TRIPOS>BOND
     1    1   24 1
     2    1    2 2
     3    1   25 1
     4    2    3 1
     5    2   26 1
     6    3   23 ar
     7    3    4 ar
     8    4    5 ar
     9    5    6 1
    10    5   15 ar
    11    6   14 ar
    12    6    7 ar
    13    7    8 ar
    14    7   27 1
    15    8    9 ar
    16    8   28 1
    17    9   10 ar
    18    9   29 1
    19   10   14 ar
    20   10   11 2
    21   11   12 1
    22   12   13 1
    23   12   30 1
    24   13   14 2
    25   13   31 1
    26   15   16 ar
    27   16   17 1
    28   16   23 ar
    29   17   22 1
    30   17   18 1
    31   18   19 1
    32   18   32 1
    33   18   33 1
    34   19   20 1
    35   19   34 1
    36   19   35 1
    37   20   21 1
    38   21   22 1
    39   21   36 1
    40   21   37 1
    41   22   38 1
    42   22   39 1
    43   23   24 1
@<TRIPOS>Similarity
1.0401
@<TRIPOS>ShapeSim
0.6558
@<TRIPOS>PharmSim
0.3842
# END
# Name:		OC1=C2C(O/C(C2=O)=C/C3=CC=C([N+]([O-])=O)C=C3)=C(C4CCN(C)CC4)C(O)=C1
# Created and modified by SHAFTS on Sun Mar 21 16:57:45 2021

# 

@<TRIPOS>MOLECULE
OC1=C2C(O/C(C2=O)=C/C3=CC=C([N+]([O-])=O)C=C3)=C(C4CCN(C)CC4)C(O)=C1
   50    53     0
SMALL
USER_CHARGE


@<TRIPOS>ATOM
      1 C1         -1.3867    4.8682    1.2107 C.3       1 <1>        -0.0914
      2 N2         -0.9441    3.4692    1.1401 N.4       1 <1>         0.4053
      3 H3          0.0604    3.4395    1.0509 H         1 <1>         0.1674
      4 C4         -1.5569    2.8220   -0.0262 C.3       1 <1>        -0.1012
      5 C5         -1.0363    1.3885   -0.1509 C.3       1 <1>        -0.0610
      6 C6         -1.3972    0.6082    1.1164 C.3       1 <1>        -0.0354
      7 C7         -0.8199   -0.7815    1.0340 C.ar      1 <1>        -0.0162
      8 C8          0.5513   -0.9536    0.9185 C.ar      1 <1>        -0.0016
      9 O9          1.3639    0.1330    0.8803 O.3       1 <1>        -0.4176
     10 C10         1.1022   -2.2273    0.8417 C.ar      1 <1>        -0.0050
     11 C11         0.2796   -3.3387    0.8805 C.ar      1 <1>         0.0124
     12 O12         0.8121   -4.5843    0.8064 O.3       1 <1>        -0.4117
     13 C13        -1.1066   -3.1708    0.9972 C.ar      1 <1>         0.0821
     14 C14        -1.6627   -1.8837    1.0800 C.ar      1 <1>         0.0540
     15 O15        -3.0069   -1.9741    1.1852 O.3       1 <1>        -0.3378
     16 C16        -3.4259   -3.2613    1.1807 C.2       1 <1>         0.1199
     17 C17        -4.7099   -3.6861    1.2708 C.2       1 <1>        -0.0078
     18 C18        -5.7905   -2.7167    1.5022 C.ar      1 <1>        -0.0562
     19 C19        -7.0978   -3.1612    1.7290 C.ar      1 <1>        -0.0611
     20 C20        -8.1053   -2.2455    1.9457 C.ar      1 <1>        -0.0368
     21 C21        -7.8266   -0.8896    1.9393 C.ar      1 <1>         0.0796
     22 N22        -8.9145    0.0866    2.1729 N.pl3     1 <1>         0.0045
     23 O23       -10.0513   -0.3040    2.3699 O.2       1 <1>        -0.2343
     24 O24        -8.6730    1.2803    2.1680 O.2       1 <1>        -0.2397
     25 C25        -6.5360   -0.4416    1.7162 C.ar      1 <1>        -0.0436
     26 C26        -5.5162   -1.3445    1.5027 C.ar      1 <1>        -0.0671
     27 C27        -2.2322   -4.1160    1.0642 C.2       1 <1>         0.1559
     28 O28        -2.1873   -5.3334    1.0259 O.2       1 <1>        -0.4146
     29 C29        -0.8157    1.3330    2.3336 C.3       1 <1>        -0.0639
     30 C30        -1.3460    2.7681    2.3654 C.3       1 <1>        -0.1018
     31 H31        -2.4719    4.9016    1.3070 H         1 <1>         0.0765
     32 H32        -0.9302    5.3506    2.0749 H         1 <1>         0.0765
     33 H33        -1.0864    5.3905    0.3023 H         1 <1>         0.0765
     34 H34        -2.6399    2.8054    0.0953 H         1 <1>         0.0877
     35 H35        -1.3016    3.3804   -0.9268 H         1 <1>         0.0877
     36 H36        -1.4936    0.9091   -1.0163 H         1 <1>         0.0759
     37 H37         0.0469    1.4039   -0.2726 H         1 <1>         0.0759
     38 H38        -2.4815    0.5474    1.2105 H         1 <1>         0.0861
     39 H39         1.6707    0.4254    1.7496 H         1 <1>         0.3707
     40 H40         2.1715   -2.3492    0.7515 H         1 <1>         0.1532
     41 H41         1.0376   -4.9674    1.6652 H         1 <1>         0.3804
     42 H42        -4.9391   -4.7370    1.1725 H         1 <1>         0.1923
     43 H43        -7.3169   -4.2187    1.7339 H         1 <1>         0.1573
     44 H44        -9.1149   -2.5869    2.1205 H         1 <1>         0.1677
     45 H45        -6.3267    0.6179    1.7132 H         1 <1>         0.1567
     46 H46        -4.5097   -0.9933    1.3292 H         1 <1>         0.1518
     47 H47        -1.1155    0.8139    3.2439 H         1 <1>         0.0753
     48 H48         0.2720    1.3473    2.2633 H         1 <1>         0.0610
     49 H49        -0.9346    3.2878    3.2306 H         1 <1>         0.0877
     50 H50        -2.4336    2.7516    2.4359 H         1 <1>         0.0877
@<TRIPOS>BOND
     1    1    2 1
     2    1   31 1
     3    1   32 1
     4    1   33 1
     5    2    3 1
     6    2   30 1
     7    2    4 1
     8    4    5 1
     9    4   34 1
    10    4   35 1
    11    5    6 1
    12    5   36 1
    13    5   37 1
    14    6    7 1
    15    6   29 1
    16    6   38 1
    17    7   14 ar
    18    7    8 ar
    19    8    9 1
    20    8   10 ar
    21    9   39 1
    22   10   11 ar
    23   10   40 1
    24   11   12 1
    25   11   13 ar
    26   12   41 1
    27   13   27 1
    28   13   14 ar
    29   14   15 1
    30   15   16 1
    31   16   17 2
    32   16   27 1
    33   17   18 1
    34   17   42 1
    35   18   26 ar
    36   18   19 ar
    37   19   20 ar
    38   19   43 1
    39   20   21 ar
    40   20   44 1
    41   21   22 1
    42   21   25 ar
    43   22   23 2
    44   22   24 2
    45   25   26 ar
    46   25   45 1
    47   26   46 1
    48   27   28 2
    49   29   30 1
    50   29   47 1
    51   29   48 1
    52   30   49 1
    53   30   50 1
@<TRIPOS>Similarity
1.0399
@<TRIPOS>ShapeSim
0.7757
@<TRIPOS>PharmSim
0.2642
# END
# Name:		CC1=CC=C(S1)C=C2C(=O)N(C(=S)N(C2=O)C3=CC=CC=C3)C
# Created and modified by SHAFTS on Sun Mar 21 16:57:45 2021

# 

@<TRIPOS>MOLECULE
CC1=CC=C(S1)C=C2C(=O)N(C(=S)N(C2=O)C3=CC=CC=C3)C
   37    39     0
SMALL
USER_CHARGE


@<TRIPOS>ATOM
      1 C1         -8.3435   -0.3830    1.9714 C.3       1 <1>        -0.0310
      2 C2         -7.4434   -1.5890    1.8917 C.2       1 <1>        -0.0387
      3 C3         -7.8637   -2.8592    1.9997 C.2       1 <1>        -0.0993
      4 C4         -6.8817   -3.8088    1.8987 C.2       1 <1>        -0.0883
      5 C5         -5.6280   -3.2731    1.7022 C.2       1 <1>         0.0123
      6 C6         -4.4399   -4.0083    1.5640 C.2       1 <1>        -0.0068
      7 C7         -3.2776   -3.5758    2.1927 C.2       1 <1>         0.1477
      8 C8         -3.3072   -2.5242    3.2242 C.2       1 <1>         0.1689
      9 O9         -4.3561   -2.0035    3.5555 O.2       1 <1>        -0.4343
     10 N10        -2.1407   -2.1544    3.7916 N.am      1 <1>        -0.2525
     11 C11        -2.1439   -1.1108    4.8198 C.3       1 <1>         0.0267
     12 C12        -0.9786   -2.7204    3.4365 C.2       1 <1>         0.0558
     13 S13         0.4524   -2.1887    4.2112 S.2       1 <1>        -0.2561
     14 N14        -0.8780   -3.6811    2.5071 N.am      1 <1>        -0.2181
     15 C15         0.3829   -4.2113    2.2045 C.ar      1 <1>         0.0017
     16 C16         0.9424   -5.1848    3.0213 C.ar      1 <1>        -0.0547
     17 C17         2.1857   -5.7055    2.7203 C.ar      1 <1>        -0.0874
     18 C18         2.8733   -5.2584    1.6069 C.ar      1 <1>        -0.0965
     19 C19         2.3186   -4.2890    0.7916 C.ar      1 <1>        -0.0874
     20 C20         1.0732   -3.7684    1.0840 C.ar      1 <1>        -0.0547
     21 C21        -1.9639   -4.1532    1.8608 C.2       1 <1>         0.1822
     22 O22        -1.8597   -5.0260    1.0192 O.2       1 <1>        -0.4304
     23 S23        -5.7567   -1.5205    1.6452 S.3       1 <1>        -0.0701
     24 H24        -7.7495    0.5226    1.8481 H         1 <1>         0.0594
     25 H25        -9.0929   -0.4361    1.1817 H         1 <1>         0.0666
     26 H26        -8.8392   -0.3631    2.9420 H         1 <1>         0.0666
     27 H27        -8.9016   -3.1142    2.1554 H         1 <1>         0.1232
     28 H28        -7.0713   -4.8699    1.9668 H         1 <1>         0.1482
     29 H29        -4.4287   -4.9098    0.9694 H         1 <1>         0.2215
     30 H30        -3.1646   -0.7649    4.9832 H         1 <1>         0.1292
     31 H31        -1.7442   -1.5156    5.7496 H         1 <1>         0.1220
     32 H32        -1.5253   -0.2755    4.4915 H         1 <1>         0.1220
     33 H33         0.4062   -5.5343    3.8911 H         1 <1>         0.1333
     34 H34         2.6216   -6.4626    3.3553 H         1 <1>         0.1252
     35 H35         3.8454   -5.6669    1.3739 H         1 <1>         0.1254
     36 H36         2.8581   -3.9415   -0.0771 H         1 <1>         0.1252
     37 H37         0.6405   -3.0113    0.4469 H         1 <1>         0.1333
@<TRIPOS>BOND
     1    1    2 1
     2    1   24 1
     3    1   25 1
     4    1   26 1
     5    2   23 1
     6    2    3 2
     7    3    4 1
     8    3   27 1
     9    4    5 2
    10    4   28 1
    11    5    6 1
    12    5   23 1
    13    6    7 2
    14    6   29 1
    15    7   21 1
    16    7    8 1
    17    8    9 2
    18    8   10 am
    19   10   11 1
    20   10   12 am
    21   11   30 1
    22   11   31 1
    23   11   32 1
    24   12   13 2
    25   12   14 am
    26   14   15 1
    27   14   21 am
    28   15   20 ar
    29   15   16 ar
    30   16   17 ar
    31   16   33 1
    32   17   18 ar
    33   17   34 1
    34   18   19 ar
    35   18   35 1
    36   19   20 ar
    37   19   36 1
    38   20   37 1
    39   21   22 2
@<TRIPOS>Similarity
1.0364
@<TRIPOS>ShapeSim
0.6039
@<TRIPOS>PharmSim
0.4326
# END
# Name:		CC1=CC=C(S1)C=C2C(=O)N(C(=S)N(C2=O)C3=CC=CC=C3)C
# Created and modified by SHAFTS on Sun Mar 21 16:57:45 2021

# 

@<TRIPOS>MOLECULE
CC1=CC=C(S1)C=C2C(=O)N(C(=S)N(C2=O)C3=CC=CC=C3)C
   37    39     0
SMALL
USER_CHARGE


@<TRIPOS>ATOM
      1 C1         -8.3435   -0.3830    1.9714 C.3       1 <1>        -0.0310
      2 C2         -7.4434   -1.5890    1.8917 C.2       1 <1>        -0.0387
      3 C3         -7.8637   -2.8592    1.9997 C.2       1 <1>        -0.0993
      4 C4         -6.8817   -3.8088    1.8987 C.2       1 <1>        -0.0883
      5 C5         -5.6280   -3.2731    1.7022 C.2       1 <1>         0.0123
      6 C6         -4.4399   -4.0083    1.5640 C.2       1 <1>        -0.0068
      7 C7         -3.2776   -3.5758    2.1927 C.2       1 <1>         0.1477
      8 C8         -3.3072   -2.5242    3.2242 C.2       1 <1>         0.1689
      9 O9         -4.3561   -2.0035    3.5555 O.2       1 <1>        -0.4343
     10 N10        -2.1407   -2.1544    3.7916 N.am      1 <1>        -0.2525
     11 C11        -2.1439   -1.1108    4.8198 C.3       1 <1>         0.0267
     12 C12        -0.9786   -2.7204    3.4365 C.2       1 <1>         0.0558
     13 S13         0.4524   -2.1887    4.2112 S.2       1 <1>        -0.2561
     14 N14        -0.8780   -3.6811    2.5071 N.am      1 <1>        -0.2181
     15 C15         0.3829   -4.2113    2.2045 C.ar      1 <1>         0.0017
     16 C16         0.9424   -5.1848    3.0213 C.ar      1 <1>        -0.0547
     17 C17         2.1857   -5.7055    2.7203 C.ar      1 <1>        -0.0874
     18 C18         2.8733   -5.2584    1.6069 C.ar      1 <1>        -0.0965
     19 C19         2.3186   -4.2890    0.7916 C.ar      1 <1>        -0.0874
     20 C20         1.0732   -3.7684    1.0840 C.ar      1 <1>        -0.0547
     21 C21        -1.9639   -4.1532    1.8608 C.2       1 <1>         0.1822
     22 O22        -1.8597   -5.0260    1.0192 O.2       1 <1>        -0.4304
     23 S23        -5.7567   -1.5205    1.6452 S.3       1 <1>        -0.0701
     24 H24        -7.7495    0.5226    1.8481 H         1 <1>         0.0594
     25 H25        -9.0929   -0.4361    1.1817 H         1 <1>         0.0666
     26 H26        -8.8392   -0.3631    2.9420 H         1 <1>         0.0666
     27 H27        -8.9016   -3.1142    2.1554 H         1 <1>         0.1232
     28 H28        -7.0713   -4.8699    1.9668 H         1 <1>         0.1482
     29 H29        -4.4287   -4.9098    0.9694 H         1 <1>         0.2215
     30 H30        -3.1646   -0.7649    4.9832 H         1 <1>         0.1292
     31 H31        -1.7442   -1.5156    5.7496 H         1 <1>         0.1220
     32 H32        -1.5253   -0.2755    4.4915 H         1 <1>         0.1220
     33 H33         0.4062   -5.5343    3.8911 H         1 <1>         0.1333
     34 H34         2.6216   -6.4626    3.3553 H         1 <1>         0.1252
     35 H35         3.8454   -5.6669    1.3739 H         1 <1>         0.1254
     36 H36         2.8581   -3.9415   -0.0771 H         1 <1>         0.1252
     37 H37         0.6405   -3.0113    0.4469 H         1 <1>         0.1333
@<TRIPOS>BOND
     1    1    2 1
     2    1   24 1
     3    1   25 1
     4    1   26 1
     5    2   23 1
     6    2    3 2
     7    3    4 1
     8    3   27 1
     9    4    5 2
    10    4   28 1
    11    5    6 1
    12    5   23 1
    13    6    7 2
    14    6   29 1
    15    7   21 1
    16    7    8 1
    17    8    9 2
    18    8   10 am
    19   10   11 1
    20   10   12 am
    21   11   30 1
    22   11   31 1
    23   11   32 1
    24   12   13 2
    25   12   14 am
    26   14   15 1
    27   14   21 am
    28   15   20 ar
    29   15   16 ar
    30   16   17 ar
    31   16   33 1
    32   17   18 ar
    33   17   34 1
    34   18   19 ar
    35   18   35 1
    36   19   20 ar
    37   19   36 1
    38   20   37 1
    39   21   22 2
@<TRIPOS>Similarity
1.0364
@<TRIPOS>ShapeSim
0.6039
@<TRIPOS>PharmSim
0.4326
# END
# Name:		O=C1C=C(OC2=CC(O)=CC(O)=C21)C3=CC(OC)=C(O)C=C3
# Created and modified by SHAFTS on Sun Mar 21 16:57:45 2021

# 

@<TRIPOS>MOLECULE
O=C1C=C(OC2=CC(O)=CC(O)=C21)C3=CC(OC)=C(O)C=C3
   33    35     0
SMALL
USER_CHARGE


@<TRIPOS>ATOM
      1 C1         -7.3800    2.9964    2.1206 C.3       1 <1>         0.0238
      2 O2         -8.6592    2.3642    2.2001 O.3       1 <1>        -0.4122
      3 C3         -8.6846    1.0080    2.1035 C.ar      1 <1>         0.0278
      4 C4         -7.5068    0.3049    1.9422 C.ar      1 <1>        -0.0335
      5 C5         -7.5366   -1.0893    1.8433 C.ar      1 <1>        -0.0238
      6 C6         -6.2818   -1.8454    1.6714 C.2       1 <1>         0.0495
      7 C7         -6.3430   -3.2006    1.5727 C.2       1 <1>         0.0132
      8 C8         -5.1496   -3.9427    1.4069 C.2       1 <1>         0.0584
      9 O9         -5.1672   -5.1594    1.3144 O.2       1 <1>        -0.4969
     10 C10        -3.8854   -3.1893    1.3499 C.ar      1 <1>         0.0330
     11 C11        -2.6571   -3.8414    1.1874 C.ar      1 <1>        -0.0245
     12 O12        -2.6099   -5.1934    1.0785 O.3       1 <1>        -0.4308
     13 C13        -1.4923   -3.0976    1.1383 C.ar      1 <1>        -0.0342
     14 C14        -1.5429   -1.7126    1.2496 C.ar      1 <1>        -0.0607
     15 O15        -0.3936   -0.9919    1.1997 O.3       1 <1>        -0.5656
     16 C16        -2.7559   -1.0604    1.4108 C.ar      1 <1>        -0.0280
     17 C17        -3.9337   -1.7888    1.4622 C.ar      1 <1>         0.0273
     18 O18        -5.1235   -1.1691    1.6131 O.3       1 <1>        -0.3428
     19 C19        -8.7579   -1.7649    1.9081 C.ar      1 <1>        -0.0675
     20 C20        -9.9296   -1.0567    2.0692 C.ar      1 <1>        -0.0519
     21 C21        -9.8992    0.3268    2.1731 C.ar      1 <1>         0.0075
     22 O22       -11.0567    1.0200    2.3318 O.3       1 <1>        -0.4291
     23 H23        -7.5019    4.0757    2.2115 H         1 <1>         0.1194
     24 H24        -6.7444    2.6332    2.9283 H         1 <1>         0.0904
     25 H25        -6.9180    2.7623    1.1615 H         1 <1>         0.0904
     26 H26        -6.5649    0.8310    1.8923 H         1 <1>         0.1409
     27 H27        -7.2958   -3.7069    1.6207 H         1 <1>         0.1294
     28 H28        -2.6763   -5.5173    0.1698 H         1 <1>         0.3510
     29 H29        -0.5411   -3.5937    1.0136 H         1 <1>         0.1034
     30 H30        -2.7827    0.0159    1.4965 H         1 <1>         0.1029
     31 H31        -8.7840   -2.8419    1.8316 H         1 <1>         0.1357
     32 H32       -10.8730   -1.5802    2.1191 H         1 <1>         0.1405
     33 H33       -11.3121    1.1531    3.2549 H         1 <1>         0.3568
@<TRIPOS>BOND
     1    1    2 1
     2    1   23 1
     3    1   24 1
     4    1   25 1
     5    2    3 1
     6    3   21 ar
     7    3    4 ar
     8    4    5 ar
     9    4   26 1
    10    5    6 1
    11    5   19 ar
    12    6   18 1
    13    6    7 2
    14    7    8 1
    15    7   27 1
    16    8    9 2
    17    8   10 1
    18   10   17 ar
    19   10   11 ar
    20   11   12 1
    21   11   13 ar
    22   12   28 1
    23   13   14 ar
    24   13   29 1
    25   14   15 1
    26   14   16 ar
    27   16   17 ar
    28   16   30 1
    29   17   18 1
    30   19   20 ar
    31   19   31 1
    32   20   21 ar
    33   20   32 1
    34   21   22 1
    35   22   33 1
@<TRIPOS>Similarity
1.0364
@<TRIPOS>ShapeSim
0.6922
@<TRIPOS>PharmSim
0.3443
# END
# Name:		C1CCC2=C(C1)C3=C(N=C2N4CCOCC4)SC5=C3N=CN=C5N
# Created and modified by SHAFTS on Sun Mar 21 16:57:45 2021

# 

@<TRIPOS>MOLECULE
C1CCC2=C(C1)C3=C(N=C2N4CCOCC4)SC5=C3N=CN=C5N
   43    47     0
SMALL
USER_CHARGE


@<TRIPOS>ATOM
      1 N1         -9.5743    2.8754    2.3421 N.pl3     1 <1>        -0.3620
      2 C2         -9.8169    1.5127    2.2618 C.ar      1 <1>         0.0072
      3 N3        -11.0544    1.0429    2.3454 N.ar      1 <1>        -0.3398
      4 C4        -11.2920   -0.2537    2.2692 C.ar      1 <1>         0.0395
      5 N5        -10.3324   -1.1322    2.1096 N.ar      1 <1>        -0.3610
      6 C6         -9.0430   -0.7466    2.0142 C.ar      1 <1>         0.0077
      7 C7         -8.7534    0.6060    2.0842 C.ar      1 <1>         0.0844
      8 S8         -7.0276    0.8836    1.9403 S.3       1 <1>        -0.0331
      9 C9         -6.6744   -0.8310    1.7821 C.ar      1 <1>         0.0570
     10 C10        -7.8447   -1.5767    1.8336 C.ar      1 <1>         0.0156
     11 C11        -7.7666   -2.9866    1.7203 C.ar      1 <1>        -0.0530
     12 C12        -6.5503   -3.5688    1.5639 C.ar      1 <1>        -0.0530
     13 C13        -6.3724   -5.0575    1.4260 C.3       1 <1>        -0.0274
     14 C14        -7.6187   -5.7930    1.9159 C.3       1 <1>        -0.0585
     15 C15        -8.8453   -5.1780    1.2316 C.3       1 <1>        -0.0565
     16 C16        -9.0496   -3.7684    1.7855 C.3       1 <1>        -0.0225
     17 C17        -5.4085   -2.7582    1.5243 C.ar      1 <1>        -0.1398
     18 N18        -4.1605   -3.3463    1.3698 N.3       1 <1>         0.3873
     19 C19        -3.5321   -3.5989    2.6746 C.3       1 <1>        -0.1304
     20 C20        -2.1882   -4.3002    2.4605 C.3       1 <1>        -0.0113
     21 O21        -1.3664   -3.4956    1.6103 O.3       1 <1>        -0.4624
     22 C22        -1.9476   -3.2306    0.3308 C.3       1 <1>        -0.0120
     23 C23        -3.2891   -2.5183    0.5234 C.3       1 <1>        -0.1299
     24 N24        -5.4975   -1.4488    1.6265 N.ar      1 <1>        -0.3859
     25 H25        -8.6667    3.2111    2.2761 H         1 <1>         0.2806
     26 H26       -10.3126    3.4933    2.4604 H         1 <1>         0.2885
     27 H27       -12.3116   -0.6023    2.3413 H         1 <1>         0.3087
     28 H28        -6.1979   -5.3035    0.3786 H         1 <1>         0.0734
     29 H29        -5.5127   -5.3733    2.0170 H         1 <1>         0.0734
     30 H30        -7.5461   -6.8494    1.6573 H         1 <1>         0.0490
     31 H31        -7.7082   -5.6826    2.9966 H         1 <1>         0.0490
     32 H32        -8.6795   -5.1291    0.1554 H         1 <1>         0.0488
     33 H33        -9.7257   -5.7858    1.4407 H         1 <1>         0.0488
     34 H34        -9.3800   -3.8330    2.8222 H         1 <1>         0.0816
     35 H35        -9.8130   -3.2578    1.1984 H         1 <1>         0.0887
     36 H36        -3.3705   -2.6522    3.1901 H         1 <1>         0.0425
     37 H37        -4.1828   -4.2346    3.2750 H         1 <1>         0.0640
     38 H38        -1.6925   -4.4383    3.4214 H         1 <1>         0.1253
     39 H39        -2.3545   -5.2709    1.9933 H         1 <1>         0.0964
     40 H40        -1.2780   -2.5949   -0.2485 H         1 <1>         0.1232
     41 H41        -2.1070   -4.1700   -0.1983 H         1 <1>         0.0943
     42 H42        -3.7625   -2.3653   -0.4464 H         1 <1>         0.0640
     43 H43        -3.1237   -1.5544    1.0046 H         1 <1>         0.0496
@<TRIPOS>BOND
     1    1    2 1
     2    1   25 1
     3    1   26 1
     4    2    7 ar
     5    2    3 ar
     6    3    4 ar
     7    4    5 ar
     8    4   27 1
     9    5    6 ar
    10    6   10 1
    11    6    7 ar
    12    7    8 1
    13    8    9 1
    14    9   24 ar
    15    9   10 ar
    16   10   11 ar
    17   11   16 1
    18   11   12 ar
    19   12   13 1
    20   12   17 ar
    21   13   14 1
    22   13   28 1
    23   13   29 1
    24   14   15 1
    25   14   30 1
    26   14   31 1
    27   15   16 1
    28   15   32 1
    29   15   33 1
    30   16   34 1
    31   16   35 1
    32   17   18 1
    33   17   24 ar
    34   18   23 1
    35   18   19 1
    36   19   20 1
    37   19   36 1
    38   19   37 1
    39   20   21 1
    40   20   38 1
    41   20   39 1
    42   21   22 1
    43   22   23 1
    44   22   40 1
    45   22   41 1
    46   23   42 1
    47   23   43 1
@<TRIPOS>Similarity
1.0362
@<TRIPOS>ShapeSim
0.6227
@<TRIPOS>PharmSim
0.4135
# END
# Name:		O=S(N1C(C=C2)=CC3=C2NN=C3NC(CC4=CC=CC=C4)=O)(CCC1)=O
# Created and modified by SHAFTS on Sun Mar 21 16:57:45 2021

# 

@<TRIPOS>MOLECULE
O=S(N1C(C=C2)=CC3=C2NN=C3NC(CC4=CC=CC=C4)=O)(CCC1)=O
   44    47     0
SMALL
USER_CHARGE


@<TRIPOS>ATOM
      1 O1         -2.3124   -4.9248    1.0686 O.2       1 <1>        -0.4521
      2 C2         -2.1944   -3.7212    1.1624 C.2       1 <1>         0.1153
      3 C3         -0.8279   -3.0902    1.0883 C.3       1 <1>         0.0751
      4 C4          0.2117   -4.1642    0.8966 C.ar      1 <1>        -0.0812
      5 C5          0.7965   -4.7642    1.9961 C.ar      1 <1>        -0.0988
      6 C6          1.7502   -5.7494    1.8203 C.ar      1 <1>        -0.1065
      7 C7          2.1186   -6.1349    0.5449 C.ar      1 <1>        -0.1097
      8 C8          1.5331   -5.5355   -0.5546 C.ar      1 <1>        -0.1065
      9 C9          0.5764   -4.5534   -0.3787 C.ar      1 <1>        -0.0988
     10 N10        -3.2858   -2.9478    1.3271 N.am      1 <1>        -0.2680
     11 C11        -4.5554   -3.5334    1.3901 C.2       1 <1>         0.0574
     12 N12        -4.8203   -4.8101    1.3090 N.2       1 <1>        -0.2986
     13 N13        -6.1989   -5.0212    1.4120 N.pl3     1 <1>        -0.3039
     14 C14        -6.8299   -3.8115    1.5659 C.ar      1 <1>        -0.0244
     15 C15        -8.1626   -3.4352    1.7123 C.ar      1 <1>        -0.0509
     16 C16        -8.4908   -2.1168    1.8479 C.ar      1 <1>        -0.0470
     17 C17        -7.5030   -1.1319    1.8416 C.ar      1 <1>         0.0181
     18 N18        -7.8605    0.2141    1.9821 N.am      1 <1>        -0.1490
     19 C19        -7.0950    1.3732    1.4990 C.3       1 <1>         0.0390
     20 C20        -8.0480    2.5398    1.1755 C.3       1 <1>         0.0564
     21 C21        -9.0203    2.5895    2.3893 C.3       1 <1>         0.2577
     22 S22        -9.2383    0.7991    2.7226 S.o2      1 <1>        -0.0482
     23 O23       -10.3232    0.2647    1.9764 O.2       1 <1>        -0.1010
     24 O24        -9.0629    0.5069    4.1021 O.2       1 <1>        -0.1010
     25 C25        -6.1738   -1.4787    1.6979 C.ar      1 <1>        -0.0345
     26 C26        -5.8248   -2.8262    1.5651 C.ar      1 <1>         0.0134
     27 H27        -0.7929   -2.3966    0.2481 H         1 <1>         0.1218
     28 H28        -0.6262   -2.5504    2.0136 H         1 <1>         0.1218
     29 H29         0.5087   -4.4630    2.9925 H         1 <1>         0.1187
     30 H30         2.2075   -6.2177    2.6792 H         1 <1>         0.1125
     31 H31         2.8641   -6.9041    0.4075 H         1 <1>         0.1116
     32 H32         1.8213   -5.8365   -1.5510 H         1 <1>         0.1125
     33 H33         0.1190   -4.0851   -1.2377 H         1 <1>         0.1187
     34 H34        -3.1913   -1.9853    1.4021 H         1 <1>         0.3437
     35 H35        -6.6393   -5.8848    1.3796 H         1 <1>         0.3820
     36 H36        -8.9377   -4.1872    1.7182 H         1 <1>         0.1439
     37 H37        -9.5268   -1.8333    1.9609 H         1 <1>         0.1433
     38 H38        -6.3892    1.6861    2.2685 H         1 <1>         0.1028
     39 H39        -6.5467    1.0944    0.5991 H         1 <1>         0.1100
     40 H40        -7.4926    3.4741    1.0935 H         1 <1>         0.0894
     41 H41        -8.5970    2.3395    0.2554 H         1 <1>         0.0752
     42 H42        -8.5643    3.0987    3.2383 H         1 <1>         0.1935
     43 H43        -9.9674    3.0547    2.1161 H         1 <1>         0.1935
     44 H44        -5.4096   -0.7155    1.6932 H         1 <1>         0.1427
@<TRIPOS>BOND
     1    1    2 2
     2    2    3 1
     3    2   10 am
     4    3    4 1
     5    3   27 1
     6    3   28 1
     7    4    9 ar
     8    4    5 ar
     9    5    6 ar
    10    5   29 1
    11    6    7 ar
    12    6   30 1
    13    7    8 ar
    14    7   31 1
    15    8    9 ar
    16    8   32 1
    17    9   33 1
    18   10   11 1
    19   10   34 1
    20   11   26 1
    21   11   12 2
    22   12   13 1
    23   13   14 1
    24   13   35 1
    25   14   26 ar
    26   14   15 ar
    27   15   16 ar
    28   15   36 1
    29   16   17 ar
    30   16   37 1
    31   17   18 1
    32   17   25 ar
    33   18   22 am
    34   18   19 1
    35   19   20 1
    36   19   38 1
    37   19   39 1
    38   20   21 1
    39   20   40 1
    40   20   41 1
    41   21   22 1
    42   21   42 1
    43   21   43 1
    44   22   23 2
    45   22   24 2
    46   25   26 ar
    47   25   44 1
@<TRIPOS>Similarity
1.0359
@<TRIPOS>ShapeSim
0.7407
@<TRIPOS>PharmSim
0.2952
# END
# Name:		CN(CC1)CCN1C(C=C2)=CC3=C2NC(C4=NNC5=C4C=C(C6=CN=CC7=C6C=CC=C7)C=N5)=N3
# Created and modified by SHAFTS on Sun Mar 21 16:57:45 2021

# 

@<TRIPOS>MOLECULE
CN(CC1)CCN1C(C=C2)=CC3=C2NC(C4=NNC5=C4C=C(C6=CN=CC7=C6C=CC=C7)C=N5)=N3
   60    66     0
SMALL
USER_CHARGE


@<TRIPOS>ATOM
      1 C1        -10.1060    5.9314    1.2462 C.3       1 <1>        -0.0882
      2 N2         -9.8462    4.4894    1.1399 N.4       1 <1>         0.4083
      3 H3        -10.3434    4.1161    0.3452 H         1 <1>         0.1594
      4 C4        -10.3047    3.8181    2.3633 C.3       1 <1>        -0.1103
      5 C5        -10.0515    2.3136    2.2452 C.3       1 <1>        -0.1720
      6 N6         -8.6152    2.0757    2.0441 N.3       1 <1>         0.3585
      7 C7         -8.3372    0.7057    1.9854 C.ar      1 <1>        -0.2209
      8 C8         -9.3741   -0.2173    2.1084 C.ar      1 <1>        -0.1006
      9 C9         -9.1141   -1.5701    2.0524 C.ar      1 <1>        -0.0637
     10 C10        -7.8139   -2.0189    1.8726 C.ar      1 <1>        -0.0260
     11 N11        -7.2398   -3.2744    1.7764 N.pl3     1 <1>        -0.3157
     12 C12        -5.8921   -3.0877    1.6004 C.2       1 <1>         0.0715
     13 C13        -4.9017   -4.1611    1.4510 C.2       1 <1>         0.0754
     14 C14        -3.5222   -3.9984    1.2761 C.ar      1 <1>         0.0412
     15 C15        -2.6606   -2.8940    1.1859 C.ar      1 <1>        -0.0401
     16 C16        -1.3069   -3.1387    1.0059 C.ar      1 <1>        -0.0163
     17 C17        -0.3585   -2.0065    0.9054 C.ar      1 <1>        -0.0335
     18 C18         0.8214   -1.9755    1.6896 C.ar      1 <1>        -0.0600
     19 C19         1.1473   -2.9987    2.5864 C.ar      1 <1>        -0.0841
     20 C20         2.2974   -2.9132    3.3137 C.ar      1 <1>        -0.0960
     21 C21         3.1524   -1.8217    3.1773 C.ar      1 <1>        -0.0956
     22 C22         2.8657   -0.8080    2.3141 C.ar      1 <1>        -0.0815
     23 C23         1.6901   -0.8633    1.5481 C.ar      1 <1>        -0.0400
     24 C24         1.3445    0.1527    0.6424 C.ar      1 <1>        -0.0207
     25 N25         0.2369    0.0682   -0.0578 N.ar      1 <1>        -0.3958
     26 C26        -0.5992   -0.9533    0.0381 C.ar      1 <1>        -0.0304
     27 C27        -0.8340   -4.4600    0.9194 C.ar      1 <1>         0.0064
     28 N28        -1.6286   -5.4931    1.0019 N.ar      1 <1>        -0.3378
     29 C29        -2.9525   -5.3492    1.1765 C.ar      1 <1>         0.0700
     30 N30        -3.9596   -6.1986    1.2902 N.2       1 <1>        -0.2830
     31 N31        -5.1522   -5.4890    1.4628 N.pl3     1 <1>        -0.2559
     32 N32        -5.6228   -1.8010    1.5851 N.2       1 <1>        -0.3369
     33 C33        -6.7602   -1.0948    1.7473 C.ar      1 <1>         0.0007
     34 C34        -7.0369    0.2759    1.8001 C.ar      1 <1>        -0.0586
     35 C35        -8.1365    2.7625    0.8361 C.3       1 <1>        -0.1720
     36 C36        -8.4054    4.2632    0.9661 C.3       1 <1>        -0.1103
     37 H37        -9.5691    6.3349    2.1047 H         1 <1>         0.0770
     38 H38        -9.7663    6.4297    0.3382 H         1 <1>         0.0842
     39 H39       -11.1753    6.0994    1.3747 H         1 <1>         0.0842
     40 H40        -9.7586    4.2123    3.2203 H         1 <1>         0.1009
     41 H41       -11.3712    3.9976    2.4983 H         1 <1>         0.1009
     42 H42       -10.3779    1.8170    3.1590 H         1 <1>         0.0872
     43 H43       -10.6083    1.9166    1.3963 H         1 <1>         0.0441
     44 H44       -10.3873    0.1291    2.2489 H         1 <1>         0.1297
     45 H45        -9.9224   -2.2800    2.1489 H         1 <1>         0.1446
     46 H46        -7.7027   -4.1256    1.8247 H         1 <1>         0.3479
     47 H47        -3.0397   -1.8850    1.2539 H         1 <1>         0.1731
     48 H48         0.4926   -3.8498    2.7019 H         1 <1>         0.1254
     49 H49         2.5491   -3.7029    4.0060 H         1 <1>         0.1273
     50 H50         4.0569   -1.7785    3.7658 H         1 <1>         0.1223
     51 H51         3.5375    0.0323    2.2193 H         1 <1>         0.1387
     52 H52         1.9926    1.0080    0.5214 H         1 <1>         0.2229
     53 H53        -1.4940   -0.9616   -0.5665 H         1 <1>         0.1955
     54 H54         0.2239   -4.6263    0.7793 H         1 <1>         0.2406
     55 H55        -6.0290   -5.8900    1.5697 H         1 <1>         0.4095
     56 H56        -6.2374    0.9949    1.6986 H         1 <1>         0.1549
     57 H57        -7.0657    2.5934    0.7217 H         1 <1>         0.0872
     58 H58        -8.6617    2.3729   -0.0361 H         1 <1>         0.0441
     59 H59        -8.0640    4.7730    0.0651 H         1 <1>         0.1009
     60 H60        -7.8690    4.6550    1.8304 H         1 <1>         0.1009
@<TRIPOS>BOND
     1    1    2 1
     2    1   37 1
     3    1   38 1
     4    1   39 1
     5    2    3 1
     6    2   36 1
     7    2    4 1
     8    4    5 1
     9    4   40 1
    10    4   41 1
    11    5    6 1
    12    5   42 1
    13    5   43 1
    14    6    7 1
    15    6   35 1
    16    7   34 ar
    17    7    8 ar
    18    8    9 ar
    19    8   44 1
    20    9   10 ar
    21    9   45 1
    22   10   33 ar
    23   10   11 1
    24   11   12 1
    25   11   46 1
    26   12   13 1
    27   12   32 2
    28   13   31 1
    29   13   14 2
    30   14   29 ar
    31   14   15 ar
    32   15   16 ar
    33   15   47 1
    34   16   17 1
    35   16   27 ar
    36   17   26 ar
    37   17   18 ar
    38   18   23 ar
    39   18   19 ar
    40   19   20 ar
    41   19   48 1
    42   20   21 ar
    43   20   49 1
    44   21   22 ar
    45   21   50 1
    46   22   23 ar
    47   22   51 1
    48   23   24 ar
    49   24   25 ar
    50   24   52 1
    51   25   26 ar
    52   26   53 1
    53   27   28 ar
    54   27   54 1
    55   28   29 ar
    56   29   30 2
    57   30   31 1
    58   31   55 1
    59   32   33 1
    60   33   34 ar
    61   34   56 1
    62   35   36 1
    63   35   57 1
    64   35   58 1
    65   36   59 1
    66   36   60 1
@<TRIPOS>Similarity
1.0348
@<TRIPOS>ShapeSim
0.7174
@<TRIPOS>PharmSim
0.3175
# END
# Name:		COC1=C(C=C(C=C1)C2=C(C(=O)C3=C(C=C(C=C3O2)O)O)O)O
# Created and modified by SHAFTS on Sun Mar 21 16:57:45 2021

# 

@<TRIPOS>MOLECULE
COC1=C(C=C(C=C1)C2=C(C(=O)C3=C(C=C(C=C3O2)O)O)O)O
   34    36     0
SMALL
USER_CHARGE


@<TRIPOS>ATOM
      1 C1         -9.8974   -0.2628    1.1680 C.3       1 <1>         0.0240
      2 O2         -9.4094   -1.3232    1.9924 O.3       1 <1>        -0.4127
      3 C3         -8.1024   -1.6654    1.8479 C.ar      1 <1>         0.0209
      4 C4         -7.3069   -0.9888    0.9344 C.ar      1 <1>        -0.0566
      5 C5         -5.9798   -1.3317    0.7841 C.ar      1 <1>        -0.0690
      6 C6         -5.4335   -2.3628    1.5526 C.ar      1 <1>        -0.0102
      7 C7         -4.0145   -2.7309    1.3937 C.2       1 <1>         0.0814
      8 C8         -3.6890   -4.0475    1.2632 C.2       1 <1>         0.0815
      9 O9         -4.6614   -4.9995    1.2797 O.3       1 <1>        -0.4215
     10 C10        -2.3279   -4.4180    1.1095 C.2       1 <1>         0.0930
     11 O11        -1.9986   -5.5874    0.9895 O.2       1 <1>        -0.4902
     12 C12        -1.3288   -3.3376    1.0999 C.ar      1 <1>         0.0408
     13 C13         0.0370   -3.6121    0.9525 C.ar      1 <1>        -0.0241
     14 O14         0.4660   -4.8923    0.8148 O.3       1 <1>        -0.4308
     15 C15         0.9444   -2.5691    0.9480 C.ar      1 <1>        -0.0342
     16 C16         0.5028   -1.2580    1.0889 C.ar      1 <1>        -0.0602
     17 O17         1.4027   -0.2415    1.0831 O.3       1 <1>        -0.5656
     18 C18        -0.8471   -0.9788    1.2346 C.ar      1 <1>        -0.0256
     19 C19        -1.7726   -2.0109    1.2420 C.ar      1 <1>         0.0319
     20 O20        -3.0907   -1.7548    1.3775 O.3       1 <1>        -0.3372
     21 C21        -6.2355   -3.0444    2.4729 C.ar      1 <1>        -0.0259
     22 C22        -7.5628   -2.6917    2.6218 C.ar      1 <1>         0.0152
     23 O23        -8.3457   -3.3526    3.5160 O.3       1 <1>        -0.4274
     24 H24        -9.7801   -0.5347    0.1190 H         1 <1>         0.0905
     25 H25       -10.9521   -0.0912    1.3831 H         1 <1>         0.1194
     26 H26        -9.3321    0.6464    1.3729 H         1 <1>         0.0905
     27 H27        -7.7280   -0.1918    0.3396 H         1 <1>         0.1214
     28 H28        -5.3630   -0.8035    0.0720 H         1 <1>         0.1462
     29 H29        -4.3297   -5.9023    1.1803 H         1 <1>         0.3700
     30 H30         0.5093   -5.1960   -0.1023 H         1 <1>         0.3510
     31 H31         1.9990   -2.7731    0.8353 H         1 <1>         0.1034
     32 H32        -1.1781    0.0435    1.3432 H         1 <1>         0.1034
     33 H33        -5.8173   -3.8421    3.0689 H         1 <1>         0.1558
     34 H34        -8.3475   -2.9626    4.4009 H         1 <1>         0.3509
@<TRIPOS>BOND
     1    1    2 1
     2    1   24 1
     3    1   25 1
     4    1   26 1
     5    2    3 1
     6    3   22 ar
     7    3    4 ar
     8    4    5 ar
     9    4   27 1
    10    5    6 ar
    11    5   28 1
    12    6    7 1
    13    6   21 ar
    14    7   20 1
    15    7    8 2
    16    8    9 1
    17    8   10 1
    18    9   29 1
    19   10   11 2
    20   10   12 1
    21   12   19 ar
    22   12   13 ar
    23   13   14 1
    24   13   15 ar
    25   14   30 1
    26   15   16 ar
    27   15   31 1
    28   16   17 1
    29   16   18 ar
    30   18   19 ar
    31   18   32 1
    32   19   20 1
    33   21   22 ar
    34   21   33 1
    35   22   23 1
    36   23   34 1
@<TRIPOS>Similarity
1.0348
@<TRIPOS>ShapeSim
0.7866
@<TRIPOS>PharmSim
0.2482
# END
# Name:		CC1=C(C=CC(=N1)C(F)(F)F)C2=NN=C(O2)SC
# Created and modified by SHAFTS on Sun Mar 21 16:57:45 2021

# 

@<TRIPOS>MOLECULE
CC1=C(C=CC(=N1)C(F)(F)F)C2=NN=C(O2)SC
   26    27     0
SMALL
USER_CHARGE


@<TRIPOS>ATOM
      1 C1         -9.6715   -0.9111    2.0597 C.3       1 <1>         0.0333
      2 S2         -8.0859   -0.0424    1.9748 S.3       1 <1>        -0.0631
      3 C3         -6.9970   -1.4124    1.7704 C.2       1 <1>         0.1664
      4 N4         -7.3434   -2.6772    1.7033 N.2       1 <1>        -0.2528
      5 N5         -6.2912   -3.4019    1.5515 N.2       1 <1>        -0.2457
      6 C6         -5.2322   -2.6303    1.5157 C.2       1 <1>         0.1467
      7 C7         -3.8320   -3.0737    1.3543 C.ar      1 <1>         0.0505
      8 C8         -2.7876   -2.1416    1.3377 C.ar      1 <1>        -0.0362
      9 C9         -1.4940   -2.6089    1.1843 C.ar      1 <1>        -0.0260
     10 C10        -1.2762   -3.9685    1.0538 C.ar      1 <1>         0.0999
     11 C11         0.1312   -4.4809    0.8866 C.3       1 <1>         0.3850
     12 F12         0.6831   -4.7465    2.1443 F         1 <1>        -0.1736
     13 F13         0.1126   -5.6560    0.1277 F         1 <1>        -0.1682
     14 F14         0.9042   -3.5157    0.2325 F         1 <1>        -0.1736
     15 N15        -2.2802   -4.8244    1.0734 N.ar      1 <1>        -0.3556
     16 C16        -3.5276   -4.4298    1.2217 C.ar      1 <1>        -0.0037
     17 C17        -4.6369   -5.4496    1.2377 C.3       1 <1>         0.0103
     18 O18        -5.6570   -1.3542    1.6484 O.3       1 <1>        -0.2819
     19 H19        -9.8300   -1.4691    1.1369 H         1 <1>         0.0870
     20 H20        -9.6634   -1.6004    2.9042 H         1 <1>         0.0870
     21 H21       -10.4761   -0.1872    2.1893 H         1 <1>         0.1085
     22 H22        -2.9863   -1.0852    1.4415 H         1 <1>         0.1708
     23 H23        -0.6632   -1.9190    1.1666 H         1 <1>         0.1546
     24 H24        -4.8105   -5.7817    2.2613 H         1 <1>         0.0821
     25 H25        -5.5483   -5.0015    0.8417 H         1 <1>         0.0964
     26 H26        -4.3545   -6.3034    0.6217 H         1 <1>         0.0821
@<TRIPOS>BOND
     1    1    2 1
     2    1   19 1
     3    1   20 1
     4    1   21 1
     5    2    3 1
     6    3   18 1
     7    3    4 2
     8    4    5 1
     9    5    6 2
    10    6    7 1
    11    6   18 1
    12    7   16 ar
    13    7    8 ar
    14    8    9 ar
    15    8   22 1
    16    9   10 ar
    17    9   23 1
    18   10   11 1
    19   10   15 ar
    20   11   12 1
    21   11   13 1
    22   11   14 1
    23   15   16 ar
    24   16   17 1
    25   17   24 1
    26   17   25 1
    27   17   26 1
@<TRIPOS>Similarity
1.0345
@<TRIPOS>ShapeSim
0.7742
@<TRIPOS>PharmSim
0.2603
# END
# Name:		OCC(S1)=CC=C1C2=CC=C(C3=CC=C(CO)S3)O2
# Created and modified by SHAFTS on Sun Mar 21 16:57:45 2021

# 

@<TRIPOS>MOLECULE
OCC(S1)=CC=C1C2=CC=C(C3=CC=C(CO)S3)O2
   31    33     0
SMALL
USER_CHARGE


@<TRIPOS>ATOM
      1 O1        -12.0839    0.4412    1.0074 O.3       1 <1>        -0.4845
      2 C2        -11.5155    0.1867    2.2937 C.3       1 <1>         0.0018
      3 C3        -10.0893   -0.2721    2.1307 C.2       1 <1>        -0.0183
      4 C4         -9.0233    0.5328    2.1082 C.2       1 <1>        -0.0870
      5 C5         -7.8106   -0.1036    1.9484 C.2       1 <1>        -0.0773
      6 C6         -7.8965   -1.4588    1.8385 C.2       1 <1>         0.0200
      7 C7         -6.7581   -2.3711    1.6617 C.2       1 <1>         0.0339
      8 C8         -6.8333   -3.7295    1.5452 C.2       1 <1>        -0.0676
      9 C9         -5.5212   -4.2008    1.3939 C.2       1 <1>        -0.0676
     10 C10        -4.6999   -3.1103    1.4243 C.2       1 <1>         0.0339
     11 C11        -3.2357   -3.1330    1.3008 C.2       1 <1>         0.0200
     12 C12        -2.4248   -2.0388    1.3380 C.2       1 <1>        -0.0773
     13 C13        -1.0822   -2.3202    1.2004 C.2       1 <1>        -0.0870
     14 C14        -0.7844   -3.6142    1.0528 C.2       1 <1>        -0.0183
     15 C15         0.6074   -4.1673    0.8853 C.3       1 <1>         0.0018
     16 O16         1.1576   -4.4692    2.1691 O.3       1 <1>        -0.4845
     17 S17        -2.2548   -4.5775    1.0896 S.3       1 <1>        -0.0802
     18 O18        -5.4617   -2.0087    1.5811 O.3       1 <1>        -0.3506
     19 S19        -9.5828   -1.9460    1.9498 S.3       1 <1>        -0.0802
     20 H20       -13.0028    0.7409    1.0358 H         1 <1>         0.3317
     21 H21       -11.5377    1.1003    2.8879 H         1 <1>         0.1125
     22 H22       -12.0914   -0.5890    2.7982 H         1 <1>         0.1053
     23 H23        -9.1054    1.6051    2.2077 H         1 <1>         0.1364
     24 H24        -6.8711    0.4279    1.9129 H         1 <1>         0.1389
     25 H25        -7.7324   -4.3274    1.5663 H         1 <1>         0.1348
     26 H26        -5.2179   -5.2306    1.2761 H         1 <1>         0.1348
     27 H27        -2.8023   -1.0348    1.4642 H         1 <1>         0.1389
     28 H28        -0.3253   -1.5498    1.2108 H         1 <1>         0.1364
     29 H29         0.5674   -5.0757    0.2844 H         1 <1>         0.1053
     30 H30         1.2343   -3.4286    0.3859 H         1 <1>         0.1125
     31 H31         2.0542   -4.8302    2.1377 H         1 <1>         0.3317
@<TRIPOS>BOND
     1    1    2 1
     2    1   20 1
     3    2    3 1
     4    2   21 1
     5    2   22 1
     6    3   19 1
     7    3    4 2
     8    4    5 1
     9    4   23 1
    10    5    6 2
    11    5   24 1
    12    6    7 1
    13    6   19 1
    14    7   18 1
    15    7    8 2
    16    8    9 1
    17    8   25 1
    18    9   10 2
    19    9   26 1
    20   10   11 1
    21   10   18 1
    22   11   17 1
    23   11   12 2
    24   12   13 1
    25   12   27 1
    26   13   14 2
    27   13   28 1
    28   14   15 1
    29   14   17 1
    30   15   16 1
    31   15   29 1
    32   15   30 1
    33   16   31 1
@<TRIPOS>Similarity
1.0342
@<TRIPOS>ShapeSim
0.7610
@<TRIPOS>PharmSim
0.2732
# END
# Name:		C1=CC=C(C=C1)C2=CC3=NC=CN=C3N2
# Created and modified by SHAFTS on Sun Mar 21 16:57:45 2021

# 

@<TRIPOS>MOLECULE
C1=CC=C(C=C1)C2=CC3=NC=CN=C3N2
   24    26     0
SMALL
USER_CHARGE


@<TRIPOS>ATOM
      1 C1         -3.3880   -2.0641    1.3905 C.2       1 <1>        -0.0218
      2 C2         -4.4616   -2.8917    1.4252 C.2       1 <1>        -0.0286
      3 C3         -5.8672   -2.4625    1.5880 C.ar      1 <1>        -0.0474
      4 C4         -6.1759   -1.1074    1.7157 C.ar      1 <1>        -0.0777
      5 C5         -7.4894   -0.7136    1.8669 C.ar      1 <1>        -0.0960
      6 C6         -8.4996   -1.6586    1.8919 C.ar      1 <1>        -0.1014
      7 C7         -8.2003   -3.0036    1.7659 C.ar      1 <1>        -0.0994
      8 C8         -6.8914   -3.4102    1.6088 C.ar      1 <1>        -0.0835
      9 N9         -4.0380   -4.1939    1.2846 N.pl3     1 <1>        -0.3208
     10 C10        -2.6688   -4.2054    1.1571 C.ar      1 <1>         0.0302
     11 N11        -1.7804   -5.1766    1.0000 N.ar      1 <1>        -0.3565
     12 C12        -0.4960   -4.8853    0.9047 C.ar      1 <1>         0.0060
     13 C13        -0.0642   -3.5688    0.9675 C.ar      1 <1>         0.0044
     14 N14        -0.9318   -2.5878    1.1239 N.ar      1 <1>        -0.3663
     15 C15        -2.2312   -2.8648    1.2212 C.ar      1 <1>         0.0222
     16 H16        -3.4108   -0.9874    1.4724 H         1 <1>         0.1534
     17 H17        -5.3882   -0.3688    1.6966 H         1 <1>         0.1317
     18 H18        -7.7296    0.3347    1.9663 H         1 <1>         0.1237
     19 H19        -9.5262   -1.3452    2.0109 H         1 <1>         0.1227
     20 H20        -8.9934   -3.7363    1.7866 H         1 <1>         0.1228
     21 H21        -6.6591   -4.4603    1.5100 H         1 <1>         0.1190
     22 H22        -4.6118   -4.9760    1.2771 H         1 <1>         0.3458
     23 H23         0.2248   -5.6793    0.7772 H         1 <1>         0.2235
     24 H24         0.9894   -3.3455    0.8881 H         1 <1>         0.2140
@<TRIPOS>BOND
     1    1   15 1
     2    1    2 2
     3    1   16 1
     4    2    3 1
     5    2    9 1
     6    3    8 ar
     7    3    4 ar
     8    4    5 ar
     9    4   17 1
    10    5    6 ar
    11    5   18 1
    12    6    7 ar
    13    6   19 1
    14    7    8 ar
    15    7   20 1
    16    8   21 1
    17    9   10 1
    18    9   22 1
    19   10   15 ar
    20   10   11 ar
    21   11   12 ar
    22   12   13 ar
    23   12   23 1
    24   13   14 ar
    25   13   24 1
    26   14   15 ar
@<TRIPOS>Similarity
1.0335
@<TRIPOS>ShapeSim
0.7301
@<TRIPOS>PharmSim
0.3034
# END
# Name:		C1=CC=C(C=C1)C2=CC3=NC=CN=C3N2
# Created and modified by SHAFTS on Sun Mar 21 16:57:45 2021

# 

@<TRIPOS>MOLECULE
C1=CC=C(C=C1)C2=CC3=NC=CN=C3N2
   24    26     0
SMALL
USER_CHARGE


@<TRIPOS>ATOM
      1 C1         -3.3880   -2.0641    1.3905 C.2       1 <1>        -0.0218
      2 C2         -4.4616   -2.8917    1.4252 C.2       1 <1>        -0.0286
      3 C3         -5.8672   -2.4625    1.5880 C.ar      1 <1>        -0.0474
      4 C4         -6.1759   -1.1074    1.7157 C.ar      1 <1>        -0.0777
      5 C5         -7.4894   -0.7136    1.8669 C.ar      1 <1>        -0.0960
      6 C6         -8.4996   -1.6586    1.8919 C.ar      1 <1>        -0.1014
      7 C7         -8.2003   -3.0036    1.7659 C.ar      1 <1>        -0.0994
      8 C8         -6.8914   -3.4102    1.6088 C.ar      1 <1>        -0.0835
      9 N9         -4.0380   -4.1939    1.2846 N.pl3     1 <1>        -0.3208
     10 C10        -2.6688   -4.2054    1.1571 C.ar      1 <1>         0.0302
     11 N11        -1.7804   -5.1766    1.0000 N.ar      1 <1>        -0.3565
     12 C12        -0.4960   -4.8853    0.9047 C.ar      1 <1>         0.0060
     13 C13        -0.0642   -3.5688    0.9675 C.ar      1 <1>         0.0044
     14 N14        -0.9318   -2.5878    1.1239 N.ar      1 <1>        -0.3663
     15 C15        -2.2312   -2.8648    1.2212 C.ar      1 <1>         0.0222
     16 H16        -3.4108   -0.9874    1.4724 H         1 <1>         0.1534
     17 H17        -5.3882   -0.3688    1.6966 H         1 <1>         0.1317
     18 H18        -7.7296    0.3347    1.9663 H         1 <1>         0.1237
     19 H19        -9.5262   -1.3452    2.0109 H         1 <1>         0.1227
     20 H20        -8.9934   -3.7363    1.7866 H         1 <1>         0.1228
     21 H21        -6.6591   -4.4603    1.5100 H         1 <1>         0.1190
     22 H22        -4.6118   -4.9760    1.2771 H         1 <1>         0.3458
     23 H23         0.2248   -5.6793    0.7772 H         1 <1>         0.2235
     24 H24         0.9894   -3.3455    0.8881 H         1 <1>         0.2140
@<TRIPOS>BOND
     1    1   15 1
     2    1    2 2
     3    1   16 1
     4    2    3 1
     5    2    9 1
     6    3    8 ar
     7    3    4 ar
     8    4    5 ar
     9    4   17 1
    10    5    6 ar
    11    5   18 1
    12    6    7 ar
    13    6   19 1
    14    7    8 ar
    15    7   20 1
    16    8   21 1
    17    9   10 1
    18    9   22 1
    19   10   15 ar
    20   10   11 ar
    21   11   12 ar
    22   12   13 ar
    23   12   23 1
    24   13   14 ar
    25   13   24 1
    26   14   15 ar
@<TRIPOS>Similarity
1.0335
@<TRIPOS>ShapeSim
0.7301
@<TRIPOS>PharmSim
0.3034
# END
# Name:		C1CCN(CC1)CC2=CC3=C(C=C2)NC(=C3)C4=NNC5=C4C=CC(=C5)C6=NNN=C6CO
# Created and modified by SHAFTS on Sun Mar 21 16:57:45 2021

# 

@<TRIPOS>MOLECULE
C1CCN(CC1)CC2=CC3=C(C=C2)NC(=C3)C4=NNC5=C4C=CC(=C5)C6=NNN=C6CO
   58    63     0
SMALL
USER_CHARGE


@<TRIPOS>ATOM
      1 O1          1.2416   -0.3540    0.1026 O.3       1 <1>        -0.4752
      2 C2          1.2204   -1.4580   -0.8046 C.3       1 <1>         0.0322
      3 C3          1.6984   -2.6994   -0.0964 C.2       1 <1>         0.0454
      4 N4          2.9339   -3.1327   -0.0051 N.2       1 <1>        -0.2950
      5 N5          2.9451   -4.2226    0.6763 N.pl3     1 <1>        -0.2237
      6 N6          1.7582   -4.5450    1.0515 N.2       1 <1>        -0.2905
      7 C7          0.9133   -3.6300    0.6088 C.2       1 <1>         0.0535
      8 C8         -0.5576   -3.5968    0.8055 C.ar      1 <1>        -0.0136
      9 C9         -1.2111   -2.3693    0.9613 C.ar      1 <1>        -0.0584
     10 C10        -2.5615   -2.3232    1.1427 C.ar      1 <1>        -0.0713
     11 C11        -3.3025   -3.5076    1.1735 C.ar      1 <1>        -0.0080
     12 C12        -2.6550   -4.7475    1.0173 C.ar      1 <1>        -0.0213
     13 C13        -1.2776   -4.7825    0.8280 C.ar      1 <1>        -0.0277
     14 N14        -3.6237   -5.7168    1.0908 N.pl3     1 <1>        -0.2996
     15 N15        -4.8685   -5.1118    1.2903 N.2       1 <1>        -0.3044
     16 C16        -4.7290   -3.8076    1.3458 C.2       1 <1>         0.0556
     17 C17        -5.8105   -2.8217    1.5460 C.2       1 <1>         0.0027
     18 C18        -6.9041   -3.0073    2.3279 C.2       1 <1>        -0.0437
     19 C19        -7.7049   -1.7878    2.2369 C.ar      1 <1>        -0.0550
     20 C20        -8.9165   -1.3812    2.8030 C.ar      1 <1>        -0.0888
     21 C21        -9.4187   -0.1438    2.5142 C.ar      1 <1>        -0.1254
     22 C22       -10.7251    0.2938    3.1249 C.3       1 <1>        -0.0843
     23 N23       -10.4663    0.9659    4.4052 N.4       1 <1>         0.4034
     24 H24        -9.9273    0.3557    5.0013 H         1 <1>         0.1641
     25 C25       -11.7429    1.2818    5.0571 C.3       1 <1>        -0.1018
     26 C26       -11.4787    1.9087    6.4277 C.3       1 <1>        -0.0749
     27 C27       -10.6645    3.1931    6.2470 C.3       1 <1>        -0.0706
     28 C28        -9.3688    2.8636    5.5000 C.3       1 <1>        -0.0749
     29 C29        -9.7128    2.2021    4.1636 C.3       1 <1>        -0.1018
     30 C30        -8.7353    0.7135    1.6632 C.ar      1 <1>        -0.0999
     31 C31        -7.5389    0.3334    1.0938 C.ar      1 <1>        -0.0658
     32 C32        -7.0083   -0.9213    1.3726 C.ar      1 <1>        -0.0497
     33 N33        -5.8610   -1.5716    0.9730 N.pl3     1 <1>        -0.3418
     34 H34         0.9456    0.4803   -0.2863 H         1 <1>         0.3327
     35 H35         0.2031   -1.6136   -1.1638 H         1 <1>         0.1239
     36 H36         1.8757   -1.2465   -1.6495 H         1 <1>         0.1239
     37 H37         3.7434   -4.7343    0.8805 H         1 <1>         0.4739
     38 H38        -0.6416   -1.4519    0.9381 H         1 <1>         0.1454
     39 H39        -3.0582   -1.3718    1.2630 H         1 <1>         0.1377
     40 H40        -0.7701   -5.7282    0.7070 H         1 <1>         0.1511
     41 H41        -3.4693   -6.6715    1.0162 H         1 <1>         0.3856
     42 H42        -7.1382   -3.8883    2.9071 H         1 <1>         0.1493
     43 H43        -9.4539   -2.0430    3.4661 H         1 <1>         0.1404
     44 H44       -11.2297    0.9834    2.4480 H         1 <1>         0.1036
     45 H45       -11.3575   -0.5779    3.2934 H         1 <1>         0.1036
     46 H46       -12.3023    1.9837    4.4387 H         1 <1>         0.0879
     47 H47       -12.3226    0.3671    5.1821 H         1 <1>         0.0879
     48 H48       -12.4277    2.1441    6.9094 H         1 <1>         0.0714
     49 H49       -10.9196    1.2074    7.0471 H         1 <1>         0.0572
     50 H50       -11.2442    3.9142    5.6708 H         1 <1>         0.0484
     51 H51       -10.4253    3.6134    7.2239 H         1 <1>         0.0555
     52 H52        -8.8099    3.7816    5.3185 H         1 <1>         0.0714
     53 H53        -8.7659    2.1821    6.1001 H         1 <1>         0.0572
     54 H54        -8.7932    1.9660    3.6283 H         1 <1>         0.0879
     55 H55       -10.3154    2.8853    3.5651 H         1 <1>         0.0879
     56 H56        -9.1452    1.6885    1.4446 H         1 <1>         0.1254
     57 H57        -7.0153    1.0080    0.4327 H         1 <1>         0.1337
     58 H58        -5.1905   -1.2039    0.3761 H         1 <1>         0.3375
@<TRIPOS>BOND
     1    1    2 1
     2    1   34 1
     3    2    3 1
     4    2   35 1
     5    2   36 1
     6    3    7 1
     7    3    4 2
     8    4    5 1
     9    5    6 1
    10    5   37 1
    11    6    7 2
    12    7    8 1
    13    8   13 ar
    14    8    9 ar
    15    9   10 ar
    16    9   38 1
    17   10   11 ar
    18   10   39 1
    19   11   16 1
    20   11   12 ar
    21   12   13 ar
    22   12   14 1
    23   13   40 1
    24   14   15 1
    25   14   41 1
    26   15   16 2
    27   16   17 1
    28   17   33 1
    29   17   18 2
    30   18   19 1
    31   18   42 1
    32   19   32 ar
    33   19   20 ar
    34   20   21 ar
    35   20   43 1
    36   21   22 1
    37   21   30 ar
    38   22   23 1
    39   22   44 1
    40   22   45 1
    41   23   24 1
    42   23   29 1
    43   23   25 1
    44   25   26 1
    45   25   46 1
    46   25   47 1
    47   26   27 1
    48   26   48 1
    49   26   49 1
    50   27   28 1
    51   27   50 1
    52   27   51 1
    53   28   29 1
    54   28   52 1
    55   28   53 1
    56   29   54 1
    57   29   55 1
    58   30   31 ar
    59   30   56 1
    60   31   32 ar
    61   31   57 1
    62   32   33 1
    63   33   58 1
@<TRIPOS>Similarity
1.0328
@<TRIPOS>ShapeSim
0.7477
@<TRIPOS>PharmSim
0.2851
# END
# Name:		OCCCNC1=C2C(C=CC=C2)=NC(NC3=CC(OC)=CC=C3OC)=N1
# Created and modified by SHAFTS on Sun Mar 21 16:57:45 2021

# 

@<TRIPOS>MOLECULE
OCCCNC1=C2C(C=CC=C2)=NC(NC3=CC(OC)=CC=C3OC)=N1
   48    50     0
SMALL
USER_CHARGE


@<TRIPOS>ATOM
      1 C1         -0.8331    1.2986    0.4479 C.3       1 <1>         0.0218
      2 O2         -2.0874    0.6183    0.3682 O.3       1 <1>        -0.4183
      3 C3         -2.0694   -0.7311    0.5354 C.ar      1 <1>        -0.0035
      4 C4         -0.8698   -1.3834    0.7766 C.ar      1 <1>        -0.0736
      5 C5         -0.8479   -2.7556    0.9475 C.ar      1 <1>        -0.0679
      6 C6         -2.0245   -3.4821    0.8782 C.ar      1 <1>         0.0202
      7 O7         -2.0022   -4.8321    1.0469 O.3       1 <1>        -0.4186
      8 C8         -0.7296   -5.4342    1.2923 C.3       1 <1>         0.0189
      9 C9         -3.2316   -2.8295    0.6360 C.ar      1 <1>         0.0142
     10 N10        -4.4232   -3.5619    0.5659 N.pl3     1 <1>        -0.2820
     11 C11        -5.6074   -3.0009    1.0110 C.ar      1 <1>         0.0715
     12 N12        -6.7398   -3.6741    0.8273 N.ar      1 <1>        -0.3120
     13 C13        -7.9047   -3.1896    1.2319 C.ar      1 <1>         0.0219
     14 N14        -9.0710   -3.8977    1.0357 N.pl3     1 <1>        -0.3612
     15 C15        -9.0326   -5.2035    0.3725 C.3       1 <1>        -0.0273
     16 C16       -10.4504   -5.7712    0.2817 C.3       1 <1>        -0.0259
     17 C17       -10.4102   -7.1350   -0.4109 C.3       1 <1>        -0.0317
     18 O18       -11.7345   -7.6652   -0.4958 O.3       1 <1>        -0.5020
     19 C19        -7.9212   -1.9252    1.8718 C.ar      1 <1>         0.0211
     20 C20        -9.1069   -1.3411    2.3300 C.ar      1 <1>        -0.0798
     21 C21        -9.0637   -0.1214    2.9396 C.ar      1 <1>        -0.0969
     22 C22        -7.8564    0.5495    3.1111 C.ar      1 <1>        -0.0840
     23 C23        -6.6836    0.0077    2.6755 C.ar      1 <1>        -0.0438
     24 C24        -6.6915   -1.2445    2.0458 C.ar      1 <1>        -0.0082
     25 N25        -5.5650   -1.8233    1.6048 N.ar      1 <1>        -0.3438
     26 C26        -3.2516   -1.4530    0.4702 C.ar      1 <1>        -0.0050
     27 H27        -0.3906    1.1310    1.4298 H         1 <1>         0.0848
     28 H28        -0.1632    0.9170   -0.3225 H         1 <1>         0.0848
     29 H29        -0.9891    2.3668    0.2972 H         1 <1>         0.1209
     30 H30         0.0494   -0.8189    0.8307 H         1 <1>         0.1118
     31 H31         0.0878   -3.2611    1.1348 H         1 <1>         0.1191
     32 H32        -0.0645   -5.2329    0.4525 H         1 <1>         0.0840
     33 H33        -0.3004   -5.0180    2.2036 H         1 <1>         0.0840
     34 H34        -0.8534   -6.5109    1.4077 H         1 <1>         0.1202
     35 H35        -4.4185   -4.4625    0.2053 H         1 <1>         0.3518
     36 H36        -9.9172   -3.5314    1.3368 H         1 <1>         0.3078
     37 H37        -8.6218   -5.0894   -0.6306 H         1 <1>         0.0983
     38 H38        -8.4045   -5.8844    0.9470 H         1 <1>         0.0983
     39 H39       -10.8612   -5.8852    1.2849 H         1 <1>         0.0671
     40 H40       -11.0784   -5.0903   -0.2928 H         1 <1>         0.0671
     41 H41        -9.9995   -7.0209   -1.4141 H         1 <1>         0.0778
     42 H42        -9.7822   -7.8159    0.1636 H         1 <1>         0.0778
     43 H43       -11.7849   -8.5304   -0.9248 H         1 <1>         0.3183
     44 H44       -10.0497   -1.8520    2.2018 H         1 <1>         0.1245
     45 H45        -9.9789    0.3299    3.2934 H         1 <1>         0.1164
     46 H46        -7.8486    1.5143    3.5965 H         1 <1>         0.1346
     47 H47        -5.7543    0.5397    2.8155 H         1 <1>         0.1447
     48 H48        -4.1858   -0.9446    0.2824 H         1 <1>         0.1618
@<TRIPOS>BOND
     1    1    2 1
     2    1   27 1
     3    1   28 1
     4    1   29 1
     5    2    3 1
     6    3   26 ar
     7    3    4 ar
     8    4    5 ar
     9    4   30 1
    10    5    6 ar
    11    5   31 1
    12    6    7 1
    13    6    9 ar
    14    7    8 1
    15    8   32 1
    16    8   33 1
    17    8   34 1
    18    9   10 1
    19    9   26 ar
    20   10   11 1
    21   10   35 1
    22   11   25 ar
    23   11   12 ar
    24   12   13 ar
    25   13   14 1
    26   13   19 ar
    27   14   15 1
    28   14   36 1
    29   15   16 1
    30   15   37 1
    31   15   38 1
    32   16   17 1
    33   16   39 1
    34   16   40 1
    35   17   18 1
    36   17   41 1
    37   17   42 1
    38   18   43 1
    39   19   24 ar
    40   19   20 ar
    41   20   21 ar
    42   20   44 1
    43   21   22 ar
    44   21   45 1
    45   22   23 ar
    46   22   46 1
    47   23   24 ar
    48   23   47 1
    49   24   25 ar
    50   26   48 1
@<TRIPOS>Similarity
1.0316
@<TRIPOS>ShapeSim
0.6177
@<TRIPOS>PharmSim
0.4138
# END
# Name:		O=C(C1=CC(C2=C3C=CC=CC3=CN=C2)=C(C#N)C=C1)C(NC4=N5)=NC4=CC=C5N6CCC(N(C)C)CC6
# Created and modified by SHAFTS on Sun Mar 21 16:57:45 2021

# 

@<TRIPOS>MOLECULE
O=C(C1=CC(C2=C3C=CC=CC3=CN=C2)=C(C#N)C=C1)C(NC4=N5)=NC4=CC=C5N6CCC(N(C)C)CC6
   66    71     0
SMALL
USER_CHARGE


@<TRIPOS>ATOM
      1 C1         -6.8655    7.2169    1.9581 C.3       1 <1>        -0.0885
      2 N2         -8.1282    6.4664    1.9430 N.4       1 <1>         0.4061
      3 H3         -8.5542    6.5063    2.8568 H         1 <1>         0.1671
      4 C4         -9.0377    7.0579    0.9525 C.3       1 <1>        -0.0901
      5 C5         -7.8613    5.0662    1.5879 C.3       1 <1>        -0.1130
      6 C6         -6.9197    4.4461    2.6239 C.3       1 <1>        -0.0793
      7 C7         -6.6940    2.9714    2.2829 C.3       1 <1>        -0.1487
      8 N8         -7.9816    2.2655    2.2809 N.3       1 <1>         0.3848
      9 C9         -7.8001    0.8990    2.1038 C.ar      1 <1>        -0.1362
     10 C10        -8.9166    0.0585    2.0687 C.ar      1 <1>        -0.0493
     11 C11        -8.7438   -1.2887    1.8946 C.ar      1 <1>        -0.0421
     12 C12        -7.4466   -1.7790    1.7571 C.ar      1 <1>         0.0073
     13 N13        -6.9114   -3.0326    1.5733 N.pl3     1 <1>        -0.3044
     14 C14        -5.5528   -2.8827    1.5105 C.2       1 <1>         0.1328
     15 C15        -4.5834   -3.9816    1.3192 C.2       1 <1>         0.1925
     16 O16        -4.9680   -5.1344    1.2977 O.2       1 <1>        -0.4064
     17 C17        -3.1467   -3.6790    1.1539 C.ar      1 <1>         0.0438
     18 C18        -2.2486   -4.7052    0.8411 C.ar      1 <1>        -0.0501
     19 C19        -0.9084   -4.4314    0.6859 C.ar      1 <1>        -0.0337
     20 C20        -0.4369   -3.1264    0.8400 C.ar      1 <1>         0.0746
     21 C21         0.9576   -2.8436    0.6782 C.1       1 <1>         0.0763
     22 N22         2.0638   -2.6192    0.5498 N.1       1 <1>        -0.3556
     23 C23        -1.3358   -2.0882    1.1545 C.ar      1 <1>        -0.0123
     24 C24        -0.8428   -0.7033    1.3191 C.ar      1 <1>        -0.0249
     25 C25        -0.2890    0.0059    0.2239 C.ar      1 <1>        -0.0570
     26 C26        -0.1816   -0.5584   -1.0517 C.ar      1 <1>        -0.0828
     27 C27         0.3602    0.1736   -2.0664 C.ar      1 <1>        -0.0957
     28 C28         0.8083    1.4751   -1.8516 C.ar      1 <1>        -0.0955
     29 C29         0.7189    2.0552   -0.6225 C.ar      1 <1>        -0.0811
     30 C30         0.1663    1.3306    0.4459 C.ar      1 <1>        -0.0383
     31 C31         0.0489    1.8784    1.7336 C.ar      1 <1>        -0.0181
     32 N32        -0.4735    1.1722    2.7097 N.ar      1 <1>        -0.3900
     33 C33        -0.9160   -0.0643    2.5466 C.ar      1 <1>        -0.0237
     34 C34        -2.6894   -2.3699    1.3043 C.ar      1 <1>        -0.0325
     35 N35        -5.2412   -1.6159    1.6453 N.2       1 <1>        -0.2985
     36 C36        -6.3586   -0.8856    1.8004 C.ar      1 <1>         0.0550
     37 N37        -6.5784    0.4216    1.9670 N.ar      1 <1>        -0.3619
     38 C38        -8.8856    2.8128    1.2612 C.3       1 <1>        -0.1499
     39 C39        -9.1767    4.2827    1.5718 C.3       1 <1>        -0.0803
     40 H40        -7.0635    8.2559    2.2216 H         1 <1>         0.0843
     41 H41        -6.1908    6.7780    2.6930 H         1 <1>         0.0843
     42 H42        -6.4053    7.1739    0.9709 H         1 <1>         0.0772
     43 H43        -9.2356    8.0969    1.2160 H         1 <1>         0.0840
     44 H44        -8.5775    7.0148   -0.0347 H         1 <1>         0.0768
     45 H45        -9.9745    6.5010    0.9413 H         1 <1>         0.0768
     46 H46        -7.3991    5.0222    0.6018 H         1 <1>         0.0971
     47 H47        -5.9656    4.9730    2.6100 H         1 <1>         0.0728
     48 H48        -7.3659    4.5261    3.6152 H         1 <1>         0.0728
     49 H49        -6.2351    2.8926    1.2973 H         1 <1>         0.0461
     50 H50        -6.0353    2.5233    3.0268 H         1 <1>         0.0819
     51 H51        -9.9093    0.4692    2.1786 H         1 <1>         0.1490
     52 H52        -9.5927   -1.9556    1.8648 H         1 <1>         0.1637
     53 H53        -7.4039   -3.8654    1.5021 H         1 <1>         0.3619
     54 H54        -2.6082   -5.7165    0.7212 H         1 <1>         0.1558
     55 H55        -0.2202   -5.2280    0.4449 H         1 <1>         0.1541
     56 H56        -0.5250   -1.5665   -1.2312 H         1 <1>         0.1258
     57 H57         0.4434   -0.2620   -3.0511 H         1 <1>         0.1274
     58 H58         1.2338    2.0329   -2.6727 H         1 <1>         0.1223
     59 H59         1.0708    3.0649   -0.4706 H         1 <1>         0.1388
     60 H60         0.3902    2.8855    1.9222 H         1 <1>         0.2235
     61 H61        -1.3352   -0.5906    3.3913 H         1 <1>         0.2058
     62 H62        -3.3835   -1.5785    1.5454 H         1 <1>         0.1893
     63 H63        -8.4165    2.7347    0.2804 H         1 <1>         0.0439
     64 H64        -9.8187    2.2494    1.2631 H         1 <1>         0.0797
     65 H65        -9.6585    4.3602    2.5464 H         1 <1>         0.0724
     66 H66        -9.8352    4.6929    0.8061 H         1 <1>         0.0724
@<TRIPOS>BOND
     1    1    2 1
     2    1   40 1
     3    1   41 1
     4    1   42 1
     5    2    3 1
     6    2    4 1
     7    2    5 1
     8    4   43 1
     9    4   44 1
    10    4   45 1
    11    5   39 1
    12    5    6 1
    13    5   46 1
    14    6    7 1
    15    6   47 1
    16    6   48 1
    17    7    8 1
    18    7   49 1
    19    7   50 1
    20    8    9 1
    21    8   38 1
    22    9   37 ar
    23    9   10 ar
    24   10   11 ar
    25   10   51 1
    26   11   12 ar
    27   11   52 1
    28   12   36 ar
    29   12   13 1
    30   13   14 1
    31   13   53 1
    32   14   15 1
    33   14   35 2
    34   15   16 2
    35   15   17 1
    36   17   34 ar
    37   17   18 ar
    38   18   19 ar
    39   18   54 1
    40   19   20 ar
    41   19   55 1
    42   20   21 1
    43   20   23 ar
    44   21   22 3
    45   23   24 1
    46   23   34 ar
    47   24   33 ar
    48   24   25 ar
    49   25   30 ar
    50   25   26 ar
    51   26   27 ar
    52   26   56 1
    53   27   28 ar
    54   27   57 1
    55   28   29 ar
    56   28   58 1
    57   29   30 ar
    58   29   59 1
    59   30   31 ar
    60   31   32 ar
    61   31   60 1
    62   32   33 ar
    63   33   61 1
    64   34   62 1
    65   35   36 1
    66   36   37 ar
    67   38   39 1
    68   38   63 1
    69   38   64 1
    70   39   65 1
    71   39   66 1
@<TRIPOS>Similarity
1.0310
@<TRIPOS>ShapeSim
0.6899
@<TRIPOS>PharmSim
0.3411
# END
# Name:		CC1(C2=NC3=C(N2CCO1)N=C(N=C3N4CCOCC4)C5=CN=C(N=C5)N)C
# Created and modified by SHAFTS on Sun Mar 21 16:57:45 2021

# 

@<TRIPOS>MOLECULE
CC1(C2=NC3=C(N2CCO1)N=C(N=C3N4CCOCC4)C5=CN=C(N=C5)N)C
   50    54     0
SMALL
USER_CHARGE


@<TRIPOS>ATOM
      1 C1        -10.7113    0.9267    3.3267 C.3       1 <1>        -0.0056
      2 C2         -9.7122    1.2854    2.2248 C.3       1 <1>         0.0661
      3 C3        -10.4571    1.5323    0.9114 C.3       1 <1>        -0.0127
      4 O4         -8.9805    2.4608    2.5972 O.3       1 <1>        -0.4271
      5 C5         -7.8625    2.7437    1.7513 C.3       1 <1>         0.0402
      6 C6         -6.7591    1.7052    1.9899 C.3       1 <1>         0.0310
      7 N7         -7.3671    0.3708    1.9418 N.pl3     1 <1>        -0.3025
      8 C8         -6.7752   -0.8376    1.7946 C.ar      1 <1>         0.0551
      9 N9         -5.5136   -1.2347    1.6506 N.ar      1 <1>        -0.3252
     10 C10        -5.2871   -2.5409    1.5278 C.ar      1 <1>         0.0571
     11 C11        -3.8848   -2.9914    1.3669 C.ar      1 <1>         0.0782
     12 C12        -3.5793   -4.3487    1.2271 C.ar      1 <1>         0.0211
     13 N13        -2.3171   -4.7105    1.0854 N.ar      1 <1>        -0.3382
     14 C14        -1.3473   -3.8066    1.0748 C.ar      1 <1>         0.0384
     15 N15        -0.0392   -4.2269    0.9242 N.pl3     1 <1>        -0.3366
     16 N16        -1.5968   -2.5110    1.2041 N.ar      1 <1>        -0.3382
     17 C17        -2.8336   -2.0696    1.3451 C.ar      1 <1>         0.0211
     18 N18        -6.2395   -3.4633    1.5412 N.ar      1 <1>        -0.3582
     19 C19        -7.5316   -3.1604    1.6808 C.ar      1 <1>        -0.0905
     20 N20        -8.5183   -4.1307    1.6940 N.3       1 <1>         0.4009
     21 C21        -9.3207   -4.0493    2.9232 C.3       1 <1>        -0.1181
     22 C22       -10.4346   -5.0982    2.8694 C.3       1 <1>        -0.0070
     23 O23        -9.8550   -6.3928    2.6861 O.3       1 <1>        -0.4614
     24 C24        -9.0671   -6.5078    1.4981 C.3       1 <1>        -0.0093
     25 C25        -7.9394   -5.4730    1.5379 C.3       1 <1>        -0.1194
     26 C26        -7.8263   -1.7898    1.8140 C.ar      1 <1>         0.0576
     27 N27        -8.9773   -1.1139    1.9694 N.2       1 <1>        -0.3482
     28 C28        -8.7211    0.1584    2.0466 C.2       1 <1>         0.0425
     29 H29       -10.1771    0.7649    4.2630 H         1 <1>         0.0629
     30 H30       -11.4234    1.7424    3.4510 H         1 <1>         0.0700
     31 H31       -11.2451    0.0172    3.0512 H         1 <1>         0.0772
     32 H32       -11.1607    2.3545    1.0417 H         1 <1>         0.0608
     33 H33        -9.7410    1.7873    0.1301 H         1 <1>         0.0465
     34 H34       -10.9999    0.6310    0.6265 H         1 <1>         0.0608
     35 H35        -8.1778    2.7052    0.7087 H         1 <1>         0.1059
     36 H36        -7.4792    3.7387    1.9773 H         1 <1>         0.1493
     37 H37        -5.9991    1.7912    1.2132 H         1 <1>         0.1347
     38 H38        -6.3062    1.8679    2.9678 H         1 <1>         0.1275
     39 H39        -4.3642   -5.0905    1.2353 H         1 <1>         0.2542
     40 H40         0.1588   -5.1716    0.8282 H         1 <1>         0.2971
     41 H41         0.6809   -3.5770    0.9145 H         1 <1>         0.2971
     42 H42        -3.0295   -1.0127    1.4495 H         1 <1>         0.2542
     43 H43        -8.6837   -4.2387    3.7871 H         1 <1>         0.0442
     44 H44        -9.7606   -3.0553    3.0055 H         1 <1>         0.0801
     45 H45       -10.9970   -5.0801    3.8030 H         1 <1>         0.1333
     46 H46       -11.1028   -4.8774    2.0370 H         1 <1>         0.1044
     47 H47        -8.6403   -7.5090    1.4399 H         1 <1>         0.1308
     48 H48        -9.6954   -6.3280    0.6258 H         1 <1>         0.0947
     49 H49        -7.3708   -5.5184    0.6091 H         1 <1>         0.0725
     50 H50        -7.2802   -5.6852    2.3797 H         1 <1>         0.0510
@<TRIPOS>BOND
     1    1    2 1
     2    1   29 1
     3    1   30 1
     4    1   31 1
     5    2   28 1
     6    2    3 1
     7    2    4 1
     8    3   32 1
     9    3   33 1
    10    3   34 1
    11    4    5 1
    12    5    6 1
    13    5   35 1
    14    5   36 1
    15    6    7 1
    16    6   37 1
    17    6   38 1
    18    7   28 1
    19    7    8 1
    20    8   26 ar
    21    8    9 ar
    22    9   10 ar
    23   10   11 1
    24   10   18 ar
    25   11   17 ar
    26   11   12 ar
    27   12   13 ar
    28   12   39 1
    29   13   14 ar
    30   14   15 1
    31   14   16 ar
    32   15   40 1
    33   15   41 1
    34   16   17 ar
    35   17   42 1
    36   18   19 ar
    37   19   20 1
    38   19   26 ar
    39   20   25 1
    40   20   21 1
    41   21   22 1
    42   21   43 1
    43   21   44 1
    44   22   23 1
    45   22   45 1
    46   22   46 1
    47   23   24 1
    48   24   25 1
    49   24   47 1
    50   24   48 1
    51   25   49 1
    52   25   50 1
    53   26   27 1
    54   27   28 2
@<TRIPOS>Similarity
1.0310
@<TRIPOS>ShapeSim
0.6401
@<TRIPOS>PharmSim
0.3909
# END
# Name:		CC(C)N1C2=NC=NC(N)=C2C(C3=CC(C(NC4=NCCS4)=O)=CC=C3)=N1
# Created and modified by SHAFTS on Sun Mar 21 16:57:45 2021

# 

@<TRIPOS>MOLECULE
CC(C)N1C2=NC=NC(N)=C2C(C3=CC(C(NC4=NCCS4)=O)=CC=C3)=N1
   46    49     0
SMALL
USER_CHARGE


@<TRIPOS>ATOM
      1 C1         -6.3080    1.2160    1.0323 C.3       1 <1>        -0.0325
      2 C2         -7.3573    0.1309    0.7826 C.3       1 <1>         0.0081
      3 C3         -7.6308    0.0218   -0.7187 C.3       1 <1>        -0.0325
      4 N4         -6.8604   -1.1532    1.2830 N.pl3     1 <1>        -0.2812
      5 N5         -5.6952   -1.7937    0.8483 N.2       1 <1>        -0.2913
      6 C6         -5.5382   -2.9230    1.4973 C.2       1 <1>         0.0485
      7 C7         -4.4265   -3.8887    1.3232 C.ar      1 <1>        -0.0113
      8 C8         -4.6949   -5.2548    1.2375 C.ar      1 <1>        -0.0654
      9 C9         -3.6611   -6.1566    1.0747 C.ar      1 <1>        -0.0853
     10 C10        -2.3565   -5.7129    0.9958 C.ar      1 <1>        -0.0646
     11 C11        -2.0743   -4.3474    1.0807 C.ar      1 <1>         0.0428
     12 C12        -0.6770   -3.8730    0.9966 C.2       1 <1>         0.1502
     13 O13        -0.4333   -2.6847    1.0707 O.2       1 <1>        -0.4324
     14 N14         0.3269   -4.7581    0.8378 N.am      1 <1>        -0.2488
     15 C15         1.6326   -4.3148    0.7593 C.2       1 <1>         0.0409
     16 N16         1.9987   -3.0871    0.8314 N.2       1 <1>        -0.3985
     17 C17         3.4008   -2.7466    0.7354 C.3       1 <1>        -0.0009
     18 C18         4.2668   -4.0027    0.5510 C.3       1 <1>         0.0097
     19 S19         3.0462   -5.3555    0.5521 S.3       1 <1>        -0.1420
     20 C20        -3.1143   -3.4331    1.2392 C.ar      1 <1>        -0.0260
     21 C21        -6.6620   -3.0537    2.4243 C.ar      1 <1>         0.0793
     22 C22        -7.0620   -4.0104    3.3717 C.ar      1 <1>         0.0052
     23 N23        -6.3122   -5.1506    3.5866 N.pl3     1 <1>        -0.3615
     24 N24        -8.1800   -3.7908    4.0568 N.ar      1 <1>        -0.3430
     25 C25        -8.9007   -2.7020    3.8558 C.ar      1 <1>         0.0422
     26 N26        -8.5657   -1.7801    2.9799 N.ar      1 <1>        -0.3395
     27 C27        -7.4586   -1.9067    2.2489 C.ar      1 <1>         0.0536
     28 H28        -6.6777    2.1714    0.6600 H         1 <1>         0.0593
     29 H29        -6.1132    1.2938    2.1019 H         1 <1>         0.0450
     30 H30        -5.3857    0.9560    0.5129 H         1 <1>         0.0521
     31 H31        -8.2796    0.3909    1.3020 H         1 <1>         0.1419
     32 H32        -6.7085   -0.2383   -1.2382 H         1 <1>         0.0521
     33 H33        -8.3783   -0.7514   -0.8966 H         1 <1>         0.0450
     34 H34        -8.0005    0.9771   -1.0911 H         1 <1>         0.0593
     35 H35        -5.7135   -5.6085    1.2989 H         1 <1>         0.1428
     36 H36        -3.8746   -7.2132    1.0093 H         1 <1>         0.1311
     37 H37        -1.5525   -6.4227    0.8686 H         1 <1>         0.1345
     38 H38         0.1323   -5.7066    0.7787 H         1 <1>         0.3524
     39 H39         3.5496   -2.0819   -0.1155 H         1 <1>         0.1204
     40 H40         3.7068   -2.2322    1.6463 H         1 <1>         0.1204
     41 H41         4.8032   -3.9644   -0.3971 H         1 <1>         0.0961
     42 H42         4.9619   -4.1162    1.3829 H         1 <1>         0.0961
     43 H43        -2.9019   -2.3763    1.3050 H         1 <1>         0.1677
     44 H44        -5.3987   -5.1984    3.2640 H         1 <1>         0.2811
     45 H45        -6.6993   -5.9035    4.0602 H         1 <1>         0.2811
     46 H46        -9.8022   -2.5636    4.4342 H         1 <1>         0.3176
@<TRIPOS>BOND
     1    1    2 1
     2    1   28 1
     3    1   29 1
     4    1   30 1
     5    2    3 1
     6    2    4 1
     7    2   31 1
     8    3   32 1
     9    3   33 1
    10    3   34 1
    11    4   27 1
    12    4    5 1
    13    5    6 2
    14    6    7 1
    15    6   21 1
    16    7   20 ar
    17    7    8 ar
    18    8    9 ar
    19    8   35 1
    20    9   10 ar
    21    9   36 1
    22   10   11 ar
    23   10   37 1
    24   11   12 1
    25   11   20 ar
    26   12   13 2
    27   12   14 am
    28   14   15 1
    29   14   38 1
    30   15   19 1
    31   15   16 2
    32   16   17 1
    33   17   18 1
    34   17   39 1
    35   17   40 1
    36   18   19 1
    37   18   41 1
    38   18   42 1
    39   20   43 1
    40   21   27 ar
    41   21   22 ar
    42   22   23 1
    43   22   24 ar
    44   23   44 1
    45   23   45 1
    46   24   25 ar
    47   25   26 ar
    48   25   46 1
    49   26   27 ar
@<TRIPOS>Similarity
1.0295
@<TRIPOS>ShapeSim
0.7016
@<TRIPOS>PharmSim
0.3279
# END
# Name:		CC(C)N1C2=NC=NC(=C2C(=N1)C3=CC(=CC=C3)C(=O)NC4=NCCS4)N
# Created and modified by SHAFTS on Sun Mar 21 16:57:45 2021

# 

@<TRIPOS>MOLECULE
CC(C)N1C2=NC=NC(=C2C(=N1)C3=CC(=CC=C3)C(=O)NC4=NCCS4)N
   46    49     0
SMALL
USER_CHARGE


@<TRIPOS>ATOM
      1 C1         -6.3080    1.2160    1.0323 C.3       1 <1>        -0.0325
      2 C2         -7.3573    0.1309    0.7826 C.3       1 <1>         0.0081
      3 C3         -7.6308    0.0218   -0.7187 C.3       1 <1>        -0.0325
      4 N4         -6.8604   -1.1532    1.2830 N.pl3     1 <1>        -0.2812
      5 N5         -5.6952   -1.7937    0.8483 N.2       1 <1>        -0.2913
      6 C6         -5.5382   -2.9230    1.4973 C.2       1 <1>         0.0485
      7 C7         -4.4265   -3.8887    1.3232 C.ar      1 <1>        -0.0113
      8 C8         -4.6949   -5.2548    1.2375 C.ar      1 <1>        -0.0654
      9 C9         -3.6611   -6.1566    1.0747 C.ar      1 <1>        -0.0853
     10 C10        -2.3565   -5.7129    0.9958 C.ar      1 <1>        -0.0646
     11 C11        -2.0743   -4.3474    1.0807 C.ar      1 <1>         0.0428
     12 C12        -0.6770   -3.8730    0.9966 C.2       1 <1>         0.1502
     13 O13        -0.4333   -2.6847    1.0707 O.2       1 <1>        -0.4324
     14 N14         0.3269   -4.7581    0.8378 N.am      1 <1>        -0.2488
     15 C15         1.6326   -4.3148    0.7593 C.2       1 <1>         0.0409
     16 N16         1.9987   -3.0871    0.8314 N.2       1 <1>        -0.3985
     17 C17         3.4008   -2.7466    0.7354 C.3       1 <1>        -0.0009
     18 C18         4.2668   -4.0027    0.5510 C.3       1 <1>         0.0097
     19 S19         3.0462   -5.3555    0.5521 S.3       1 <1>        -0.1420
     20 C20        -3.1143   -3.4331    1.2392 C.ar      1 <1>        -0.0260
     21 C21        -6.6620   -3.0537    2.4243 C.ar      1 <1>         0.0793
     22 C22        -7.0620   -4.0104    3.3717 C.ar      1 <1>         0.0052
     23 N23        -6.3122   -5.1506    3.5866 N.pl3     1 <1>        -0.3615
     24 N24        -8.1800   -3.7908    4.0568 N.ar      1 <1>        -0.3430
     25 C25        -8.9007   -2.7020    3.8558 C.ar      1 <1>         0.0422
     26 N26        -8.5657   -1.7801    2.9799 N.ar      1 <1>        -0.3395
     27 C27        -7.4586   -1.9067    2.2489 C.ar      1 <1>         0.0536
     28 H28        -6.6777    2.1714    0.6600 H         1 <1>         0.0593
     29 H29        -6.1132    1.2938    2.1019 H         1 <1>         0.0450
     30 H30        -5.3857    0.9560    0.5129 H         1 <1>         0.0521
     31 H31        -8.2796    0.3909    1.3020 H         1 <1>         0.1419
     32 H32        -6.7085   -0.2383   -1.2382 H         1 <1>         0.0521
     33 H33        -8.3783   -0.7514   -0.8966 H         1 <1>         0.0450
     34 H34        -8.0005    0.9771   -1.0911 H         1 <1>         0.0593
     35 H35        -5.7135   -5.6085    1.2989 H         1 <1>         0.1428
     36 H36        -3.8746   -7.2132    1.0093 H         1 <1>         0.1311
     37 H37        -1.5525   -6.4227    0.8686 H         1 <1>         0.1345
     38 H38         0.1323   -5.7066    0.7787 H         1 <1>         0.3524
     39 H39         3.5496   -2.0819   -0.1155 H         1 <1>         0.1204
     40 H40         3.7068   -2.2322    1.6463 H         1 <1>         0.1204
     41 H41         4.8032   -3.9644   -0.3971 H         1 <1>         0.0961
     42 H42         4.9619   -4.1162    1.3829 H         1 <1>         0.0961
     43 H43        -2.9019   -2.3763    1.3050 H         1 <1>         0.1677
     44 H44        -5.3987   -5.1984    3.2640 H         1 <1>         0.2811
     45 H45        -6.6993   -5.9035    4.0602 H         1 <1>         0.2811
     46 H46        -9.8022   -2.5636    4.4342 H         1 <1>         0.3176
@<TRIPOS>BOND
     1    1    2 1
     2    1   28 1
     3    1   29 1
     4    1   30 1
     5    2    3 1
     6    2    4 1
     7    2   31 1
     8    3   32 1
     9    3   33 1
    10    3   34 1
    11    4   27 1
    12    4    5 1
    13    5    6 2
    14    6    7 1
    15    6   21 1
    16    7   20 ar
    17    7    8 ar
    18    8    9 ar
    19    8   35 1
    20    9   10 ar
    21    9   36 1
    22   10   11 ar
    23   10   37 1
    24   11   12 1
    25   11   20 ar
    26   12   13 2
    27   12   14 am
    28   14   15 1
    29   14   38 1
    30   15   19 1
    31   15   16 2
    32   16   17 1
    33   17   18 1
    34   17   39 1
    35   17   40 1
    36   18   19 1
    37   18   41 1
    38   18   42 1
    39   20   43 1
    40   21   27 ar
    41   21   22 ar
    42   22   23 1
    43   22   24 ar
    44   23   44 1
    45   23   45 1
    46   24   25 ar
    47   25   26 ar
    48   25   46 1
    49   26   27 ar
@<TRIPOS>Similarity
1.0295
@<TRIPOS>ShapeSim
0.7016
@<TRIPOS>PharmSim
0.3279
# END
# Name:		COC1=CC=C(C=C1)C2=CC(=O)C3=C(O2)C=C(C=C3)O
# Created and modified by SHAFTS on Sun Mar 21 16:57:45 2021

# 

@<TRIPOS>MOLECULE
COC1=CC=C(C=C1)C2=CC(=O)C3=C(O2)C=C(C=C3)O
   31    33     0
SMALL
USER_CHARGE


@<TRIPOS>ATOM
      1 C1        -11.0185    2.2335    2.4038 C.3       1 <1>         0.0240
      2 O2        -11.0914    0.8092    2.3127 O.3       1 <1>        -0.4181
      3 C3         -9.9202    0.1410    2.1548 C.ar      1 <1>        -0.0138
      4 C4         -8.7235    0.8451    2.0946 C.ar      1 <1>        -0.0650
      5 C5         -7.5331    0.1713    1.9344 C.ar      1 <1>        -0.0744
      6 C6         -7.5298   -1.2229    1.8324 C.ar      1 <1>        -0.0257
      7 C7         -6.2573   -1.9487    1.6612 C.2       1 <1>         0.0441
      8 C8         -6.2866   -3.3056    1.5594 C.2       1 <1>         0.0096
      9 C9         -5.0770   -4.0189    1.3944 C.2       1 <1>         0.0468
     10 O10        -5.0662   -5.2353    1.2992 O.2       1 <1>        -0.5080
     11 C11        -3.8287   -3.2347    1.3413 C.ar      1 <1>        -0.0011
     12 C12        -2.5899   -3.8548    1.1803 C.ar      1 <1>        -0.0963
     13 C13        -1.4533   -3.0977    1.1349 C.ar      1 <1>        -0.0747
     14 C14        -1.5258   -1.7115    1.2485 C.ar      1 <1>        -0.0744
     15 O15        -0.3884   -0.9719    1.2011 O.3       1 <1>        -0.5763
     16 C16        -2.7490   -1.0812    1.4087 C.ar      1 <1>        -0.0336
     17 C17        -3.9113   -1.8364    1.4566 C.ar      1 <1>         0.0213
     18 O18        -5.1153   -1.2455    1.6065 O.3       1 <1>        -0.3427
     19 C19        -8.7357   -1.9270    1.8935 C.ar      1 <1>        -0.0668
     20 C20        -9.9209   -1.2455    2.0594 C.ar      1 <1>        -0.0521
     21 H21       -10.5737    2.6335    1.4926 H         1 <1>         0.0922
     22 H22       -12.0217    2.6414    2.5277 H         1 <1>         0.1211
     23 H23       -10.4046    2.5119    3.2604 H         1 <1>         0.0922
     24 H24        -8.7270    1.9223    2.1731 H         1 <1>         0.1121
     25 H25        -6.6037    0.7192    1.8873 H         1 <1>         0.1464
     26 H26        -7.2275   -3.8340    1.6045 H         1 <1>         0.1255
     27 H27        -2.5291   -4.9294    1.0923 H         1 <1>         0.1230
     28 H28        -0.4935   -3.5769    1.0108 H         1 <1>         0.0893
     29 H29        -2.7973   -0.0059    1.4964 H         1 <1>         0.0943
     30 H30        -8.7376   -3.0040    1.8146 H         1 <1>         0.1465
     31 H31       -10.8532   -1.7887    2.1067 H         1 <1>         0.1344
@<TRIPOS>BOND
     1    1    2 1
     2    1   21 1
     3    1   22 1
     4    1   23 1
     5    2    3 1
     6    3   20 ar
     7    3    4 ar
     8    4    5 ar
     9    4   24 1
    10    5    6 ar
    11    5   25 1
    12    6    7 1
    13    6   19 ar
    14    7   18 1
    15    7    8 2
    16    8    9 1
    17    8   26 1
    18    9   10 2
    19    9   11 1
    20   11   17 ar
    21   11   12 ar
    22   12   13 ar
    23   12   27 1
    24   13   14 ar
    25   13   28 1
    26   14   15 1
    27   14   16 ar
    28   16   17 ar
    29   16   29 1
    30   17   18 1
    31   19   20 ar
    32   19   30 1
    33   20   31 1
@<TRIPOS>Similarity
1.0284
@<TRIPOS>ShapeSim
0.6897
@<TRIPOS>PharmSim
0.3388
# END
# Name:		COC1=C(C=C(C=C1)C2=CC(=O)C3=C(O2)C(=C(C(=C3OC)OC)OC)OC)OC
# Created and modified by SHAFTS on Sun Mar 21 16:57:45 2021

# 

@<TRIPOS>MOLECULE
COC1=C(C=C(C=C1)C2=CC(=O)C3=C(O2)C(=C(C(=C3OC)OC)OC)OC)OC
   51    53     0
SMALL
USER_CHARGE


@<TRIPOS>ATOM
      1 C1        -12.2355    0.2453    2.3850 C.3       1 <1>         0.0286
      2 O2        -11.0265    1.0048    2.3215 O.3       1 <1>        -0.4035
      3 C3         -9.8697    0.3103    2.1632 C.ar      1 <1>         0.0401
      4 C4         -9.9008   -1.0735    2.0654 C.ar      1 <1>        -0.0487
      5 C5         -8.7298   -1.7829    1.9047 C.ar      1 <1>        -0.0740
      6 C6         -7.5079   -1.1085    1.8399 C.ar      1 <1>        -0.0237
      7 C7         -6.2538   -1.8658    1.6675 C.2       1 <1>         0.0540
      8 C8         -6.3164   -3.2213    1.5687 C.2       1 <1>         0.0269
      9 C9         -5.1244   -3.9648    1.4030 C.2       1 <1>         0.0978
     10 O10        -5.1439   -5.1816    1.3105 O.2       1 <1>        -0.4597
     11 C11        -3.8587   -3.2134    1.3459 C.ar      1 <1>         0.0942
     12 C12        -2.6328   -3.8680    1.1833 C.ar      1 <1>         0.0783
     13 O13        -2.5894   -5.2221    1.0744 O.3       1 <1>        -0.3940
     14 C14        -2.7903   -5.7749   -0.2279 C.3       1 <1>         0.0276
     15 C15        -1.4630   -3.1263    1.1337 C.ar      1 <1>         0.0993
     16 O16        -0.2660   -3.7552    0.9754 O.3       1 <1>        -0.4084
     17 C17         0.2518   -3.8395   -0.3538 C.3       1 <1>         0.0208
     18 C18        -1.5097   -1.7387    1.2451 C.ar      1 <1>         0.1011
     19 O19        -0.3573   -1.0194    1.1954 O.3       1 <1>        -0.3971
     20 C20         0.3642   -0.8648    2.4191 C.3       1 <1>         0.0260
     21 C21        -2.7236   -1.0836    1.4061 C.ar      1 <1>         0.1043
     22 O22        -2.7558    0.2735    1.5133 O.3       1 <1>        -0.4055
     23 C23        -2.9937    1.0135    0.3142 C.3       1 <1>         0.0217
     24 C24        -3.9049   -1.8126    1.4582 C.ar      1 <1>         0.1085
     25 O25        -5.0951   -1.1908    1.6088 O.3       1 <1>        -0.3219
     26 C26        -7.4767    0.2856    1.9385 C.ar      1 <1>        -0.0308
     27 C27        -8.6545    0.9903    2.0938 C.ar      1 <1>         0.0445
     28 O28        -8.6277    2.3466    2.1895 O.3       1 <1>        -0.4059
     29 C29        -7.3469    2.9767    2.1218 C.3       1 <1>         0.0274
     30 H30       -12.3577   -0.3209    1.4616 H         1 <1>         0.0915
     31 H31       -12.1887   -0.4423    3.2295 H         1 <1>         0.0915
     32 H32       -13.0820    0.9201    2.5123 H         1 <1>         0.1277
     33 H33       -10.8447   -1.5960    2.1157 H         1 <1>         0.1342
     34 H34        -8.7569   -2.8599    1.8292 H         1 <1>         0.1407
     35 H35        -7.2698   -3.7265    1.6168 H         1 <1>         0.1445
     36 H36        -2.8216   -6.8624   -0.1602 H         1 <1>         0.1237
     37 H37        -3.7324   -5.4092   -0.6365 H         1 <1>         0.0876
     38 H38        -1.9705   -5.4749   -0.8804 H         1 <1>         0.0803
     39 H39        -0.4070   -4.4595   -0.9618 H         1 <1>         0.0845
     40 H40         0.3103   -2.8400   -0.7850 H         1 <1>         0.0845
     41 H41         1.2472   -4.2832   -0.3286 H         1 <1>         0.1207
     42 H42        -0.2933   -0.4394    3.1774 H         1 <1>         0.0869
     43 H43         0.7238   -1.8376    2.7544 H         1 <1>         0.0941
     44 H44         1.2125   -0.1993    2.2592 H         1 <1>         0.1231
     45 H45        -3.9962    0.7959   -0.0541 H         1 <1>         0.0846
     46 H46        -2.9065    2.0800    0.5221 H         1 <1>         0.1208
     47 H47        -2.2599    0.7292   -0.4399 H         1 <1>         0.0846
     48 H48        -6.5342    0.8107    1.8894 H         1 <1>         0.1464
     49 H49        -7.4680    4.0563    2.2105 H         1 <1>         0.1276
     50 H50        -6.7197    2.6132    2.9358 H         1 <1>         0.0914
     51 H51        -6.8761    2.7411    1.1673 H         1 <1>         0.0914
@<TRIPOS>BOND
     1    1    2 1
     2    1   30 1
     3    1   31 1
     4    1   32 1
     5    2    3 1
     6    3   27 ar
     7    3    4 ar
     8    4    5 ar
     9    4   33 1
    10    5    6 ar
    11    5   34 1
    12    6    7 1
    13    6   26 ar
    14    7   25 1
    15    7    8 2
    16    8    9 1
    17    8   35 1
    18    9   10 2
    19    9   11 1
    20   11   24 ar
    21   11   12 ar
    22   12   13 1
    23   12   15 ar
    24   13   14 1
    25   14   36 1
    26   14   37 1
    27   14   38 1
    28   15   16 1
    29   15   18 ar
    30   16   17 1
    31   17   39 1
    32   17   40 1
    33   17   41 1
    34   18   19 1
    35   18   21 ar
    36   19   20 1
    37   20   42 1
    38   20   43 1
    39   20   44 1
    40   21   22 1
    41   21   24 ar
    42   22   23 1
    43   23   45 1
    44   23   46 1
    45   23   47 1
    46   24   25 1
    47   26   27 ar
    48   26   48 1
    49   27   28 1
    50   28   29 1
    51   29   49 1
    52   29   50 1
    53   29   51 1
@<TRIPOS>Similarity
1.0278
@<TRIPOS>ShapeSim
0.6981
@<TRIPOS>PharmSim
0.3296
# END
# Name:		O=C1NC2=C(C=CC=C2)/C1=C3NC4=CC=CC=C4C\3=N/O
# Created and modified by SHAFTS on Sun Mar 21 16:57:45 2021

# 

@<TRIPOS>MOLECULE
O=C1NC2=C(C=CC=C2)/C1=C3NC4=CC=CC=C4C\3=N/O
   32    35     0
SMALL
USER_CHARGE


@<TRIPOS>ATOM
      1 O1         -1.8913   -5.4634    0.9887 O.2       1 <1>        -0.4705
      2 C2         -1.2379   -4.4355    1.0127 C.2       1 <1>         0.1245
      3 N3          0.0974   -4.3458    0.8906 N.am      1 <1>        -0.2989
      4 C4          0.5241   -3.0256    0.9607 C.ar      1 <1>        -0.0443
      5 C5          1.7900   -2.4559    0.8863 C.ar      1 <1>        -0.0700
      6 C6          1.9407   -1.0873    0.9876 C.ar      1 <1>        -0.0970
      7 C7          0.8391   -0.2670    1.1644 C.ar      1 <1>        -0.0996
      8 C8         -0.4260   -0.8137    1.2411 C.ar      1 <1>        -0.0811
      9 C9         -0.5892   -2.1917    1.1392 C.ar      1 <1>        -0.0307
     10 C10        -1.7722   -3.0780    1.1737 C.2       1 <1>         0.0830
     11 C11        -3.1007   -2.7067    1.3278 C.2       1 <1>         0.0550
     12 N12        -4.1933   -3.5113    1.1431 N.pl3     1 <1>        -0.3277
     13 C13        -5.3714   -2.8156    1.3831 C.ar      1 <1>        -0.0413
     14 C14        -6.7031   -3.2141    1.3207 C.ar      1 <1>        -0.0630
     15 C15        -7.7098   -2.3154    1.6100 C.ar      1 <1>        -0.0871
     16 C16        -7.4096   -1.0113    1.9649 C.ar      1 <1>        -0.0892
     17 C17        -6.0940   -0.5980    2.0324 C.ar      1 <1>        -0.0716
     18 C18        -5.0721   -1.4957    1.7424 C.ar      1 <1>         0.0048
     19 C19        -3.5952   -1.3713    1.7277 C.2       1 <1>         0.0868
     20 N20        -2.8845   -0.3115    2.0050 N.2       1 <1>        -0.2707
     21 O21        -3.5273    0.8963    2.3698 O.3       1 <1>        -0.3620
     22 H22         0.6879   -5.1058    0.7695 H         1 <1>         0.3357
     23 H23         2.6570   -3.0851    0.7493 H         1 <1>         0.1265
     24 H24         2.9275   -0.6524    0.9289 H         1 <1>         0.1261
     25 H25         0.9701    0.8022    1.2427 H         1 <1>         0.1172
     26 H26        -1.2856   -0.1745    1.3793 H         1 <1>         0.1537
     27 H27        -4.1503   -4.4436    0.8791 H         1 <1>         0.3494
     28 H28        -6.9496   -4.2288    1.0450 H         1 <1>         0.1286
     29 H29        -8.7410   -2.6322    1.5587 H         1 <1>         0.1412
     30 H30        -8.2055   -0.3165    2.1888 H         1 <1>         0.1255
     31 H31        -5.8592    0.4193    2.3089 H         1 <1>         0.1490
     32 H32        -2.9192    1.6247    2.5563 H         1 <1>         0.4078
@<TRIPOS>BOND
     1    1    2 2
     2    2   10 1
     3    2    3 am
     4    3    4 1
     5    3   22 1
     6    4    9 ar
     7    4    5 ar
     8    5    6 ar
     9    5   23 1
    10    6    7 ar
    11    6   24 1
    12    7    8 ar
    13    7   25 1
    14    8    9 ar
    15    8   26 1
    16    9   10 1
    17   10   11 2
    18   11   19 1
    19   11   12 1
    20   12   13 1
    21   12   27 1
    22   13   18 ar
    23   13   14 ar
    24   14   15 ar
    25   14   28 1
    26   15   16 ar
    27   15   29 1
    28   16   17 ar
    29   16   30 1
    30   17   18 ar
    31   17   31 1
    32   18   19 1
    33   19   20 2
    34   20   21 1
    35   21   32 1
@<TRIPOS>Similarity
1.0277
@<TRIPOS>ShapeSim
0.7495
@<TRIPOS>PharmSim
0.2781
# END
# Name:		O=C1/C(C2=CC=CC=C2N1)=C3/C(C(C=CC=C4)=C4N3)=N/O
# Created and modified by SHAFTS on Sun Mar 21 16:57:45 2021

# 

@<TRIPOS>MOLECULE
O=C1/C(C2=CC=CC=C2N1)=C3/C(C(C=CC=C4)=C4N3)=N/O
   32    35     0
SMALL
USER_CHARGE


@<TRIPOS>ATOM
      1 O1         -1.8913   -5.4634    0.9887 O.2       1 <1>        -0.4705
      2 C2         -1.2379   -4.4355    1.0127 C.2       1 <1>         0.1245
      3 N3          0.0974   -4.3458    0.8906 N.am      1 <1>        -0.2989
      4 C4          0.5241   -3.0256    0.9607 C.ar      1 <1>        -0.0443
      5 C5          1.7900   -2.4559    0.8863 C.ar      1 <1>        -0.0700
      6 C6          1.9407   -1.0873    0.9876 C.ar      1 <1>        -0.0970
      7 C7          0.8391   -0.2670    1.1644 C.ar      1 <1>        -0.0996
      8 C8         -0.4260   -0.8137    1.2411 C.ar      1 <1>        -0.0811
      9 C9         -0.5892   -2.1917    1.1392 C.ar      1 <1>        -0.0307
     10 C10        -1.7722   -3.0780    1.1737 C.2       1 <1>         0.0830
     11 C11        -3.1007   -2.7067    1.3278 C.2       1 <1>         0.0550
     12 N12        -4.1933   -3.5113    1.1431 N.pl3     1 <1>        -0.3277
     13 C13        -5.3714   -2.8156    1.3831 C.ar      1 <1>        -0.0413
     14 C14        -6.7031   -3.2141    1.3207 C.ar      1 <1>        -0.0630
     15 C15        -7.7098   -2.3154    1.6100 C.ar      1 <1>        -0.0871
     16 C16        -7.4096   -1.0113    1.9649 C.ar      1 <1>        -0.0892
     17 C17        -6.0940   -0.5980    2.0324 C.ar      1 <1>        -0.0716
     18 C18        -5.0721   -1.4957    1.7424 C.ar      1 <1>         0.0048
     19 C19        -3.5952   -1.3713    1.7277 C.2       1 <1>         0.0868
     20 N20        -2.8845   -0.3115    2.0050 N.2       1 <1>        -0.2707
     21 O21        -3.5273    0.8963    2.3698 O.3       1 <1>        -0.3620
     22 H22         0.6879   -5.1058    0.7695 H         1 <1>         0.3357
     23 H23         2.6570   -3.0851    0.7493 H         1 <1>         0.1265
     24 H24         2.9275   -0.6524    0.9289 H         1 <1>         0.1261
     25 H25         0.9701    0.8022    1.2427 H         1 <1>         0.1172
     26 H26        -1.2856   -0.1745    1.3793 H         1 <1>         0.1537
     27 H27        -4.1503   -4.4436    0.8791 H         1 <1>         0.3494
     28 H28        -6.9496   -4.2288    1.0450 H         1 <1>         0.1286
     29 H29        -8.7410   -2.6322    1.5587 H         1 <1>         0.1412
     30 H30        -8.2055   -0.3165    2.1888 H         1 <1>         0.1255
     31 H31        -5.8592    0.4193    2.3089 H         1 <1>         0.1490
     32 H32        -2.9192    1.6247    2.5563 H         1 <1>         0.4078
@<TRIPOS>BOND
     1    1    2 2
     2    2   10 1
     3    2    3 am
     4    3    4 1
     5    3   22 1
     6    4    9 ar
     7    4    5 ar
     8    5    6 ar
     9    5   23 1
    10    6    7 ar
    11    6   24 1
    12    7    8 ar
    13    7   25 1
    14    8    9 ar
    15    8   26 1
    16    9   10 1
    17   10   11 2
    18   11   19 1
    19   11   12 1
    20   12   13 1
    21   12   27 1
    22   13   18 ar
    23   13   14 ar
    24   14   15 ar
    25   14   28 1
    26   15   16 ar
    27   15   29 1
    28   16   17 ar
    29   16   30 1
    30   17   18 ar
    31   17   31 1
    32   18   19 1
    33   19   20 2
    34   20   21 1
    35   21   32 1
@<TRIPOS>Similarity
1.0277
@<TRIPOS>ShapeSim
0.7495
@<TRIPOS>PharmSim
0.2781
# END
# Name:		O=C(NC1=C/2C=CC=C1)C2=C3NC4=CC=CC=C4C/3=N/O
# Created and modified by SHAFTS on Sun Mar 21 16:57:45 2021

# 

@<TRIPOS>MOLECULE
O=C(NC1=C/2C=CC=C1)C2=C3NC4=CC=CC=C4C/3=N/O
   32    35     0
SMALL
USER_CHARGE


@<TRIPOS>ATOM
      1 O1         -1.8913   -5.4634    0.9887 O.2       1 <1>        -0.4705
      2 C2         -1.2379   -4.4355    1.0127 C.2       1 <1>         0.1245
      3 N3          0.0974   -4.3458    0.8906 N.am      1 <1>        -0.2989
      4 C4          0.5241   -3.0256    0.9607 C.ar      1 <1>        -0.0443
      5 C5          1.7900   -2.4559    0.8863 C.ar      1 <1>        -0.0700
      6 C6          1.9407   -1.0873    0.9876 C.ar      1 <1>        -0.0970
      7 C7          0.8391   -0.2670    1.1644 C.ar      1 <1>        -0.0996
      8 C8         -0.4260   -0.8137    1.2411 C.ar      1 <1>        -0.0811
      9 C9         -0.5892   -2.1917    1.1392 C.ar      1 <1>        -0.0307
     10 C10        -1.7722   -3.0780    1.1737 C.2       1 <1>         0.0830
     11 C11        -3.1007   -2.7067    1.3278 C.2       1 <1>         0.0550
     12 N12        -4.1933   -3.5113    1.1431 N.pl3     1 <1>        -0.3277
     13 C13        -5.3714   -2.8156    1.3831 C.ar      1 <1>        -0.0413
     14 C14        -6.7031   -3.2141    1.3207 C.ar      1 <1>        -0.0630
     15 C15        -7.7098   -2.3154    1.6100 C.ar      1 <1>        -0.0871
     16 C16        -7.4096   -1.0113    1.9649 C.ar      1 <1>        -0.0892
     17 C17        -6.0940   -0.5980    2.0324 C.ar      1 <1>        -0.0716
     18 C18        -5.0721   -1.4957    1.7424 C.ar      1 <1>         0.0048
     19 C19        -3.5952   -1.3713    1.7277 C.2       1 <1>         0.0868
     20 N20        -2.8845   -0.3115    2.0050 N.2       1 <1>        -0.2707
     21 O21        -3.5273    0.8963    2.3698 O.3       1 <1>        -0.3620
     22 H22         0.6879   -5.1058    0.7695 H         1 <1>         0.3357
     23 H23         2.6570   -3.0851    0.7493 H         1 <1>         0.1265
     24 H24         2.9275   -0.6524    0.9289 H         1 <1>         0.1261
     25 H25         0.9701    0.8022    1.2427 H         1 <1>         0.1172
     26 H26        -1.2856   -0.1745    1.3793 H         1 <1>         0.1537
     27 H27        -4.1503   -4.4436    0.8791 H         1 <1>         0.3494
     28 H28        -6.9496   -4.2288    1.0450 H         1 <1>         0.1286
     29 H29        -8.7410   -2.6322    1.5587 H         1 <1>         0.1412
     30 H30        -8.2055   -0.3165    2.1888 H         1 <1>         0.1255
     31 H31        -5.8592    0.4193    2.3089 H         1 <1>         0.1490
     32 H32        -2.9192    1.6247    2.5563 H         1 <1>         0.4078
@<TRIPOS>BOND
     1    1    2 2
     2    2   10 1
     3    2    3 am
     4    3    4 1
     5    3   22 1
     6    4    9 ar
     7    4    5 ar
     8    5    6 ar
     9    5   23 1
    10    6    7 ar
    11    6   24 1
    12    7    8 ar
    13    7   25 1
    14    8    9 ar
    15    8   26 1
    16    9   10 1
    17   10   11 2
    18   11   19 1
    19   11   12 1
    20   12   13 1
    21   12   27 1
    22   13   18 ar
    23   13   14 ar
    24   14   15 ar
    25   14   28 1
    26   15   16 ar
    27   15   29 1
    28   16   17 ar
    29   16   30 1
    30   17   18 ar
    31   17   31 1
    32   18   19 1
    33   19   20 2
    34   20   21 1
    35   21   32 1
@<TRIPOS>Similarity
1.0277
@<TRIPOS>ShapeSim
0.7495
@<TRIPOS>PharmSim
0.2781
# END
# Name:		NCCCNC1=NC(C2=CC=CC=C2)=CC3=NC=CC=C31
# Created and modified by SHAFTS on Sun Mar 21 16:57:45 2021

# 

@<TRIPOS>MOLECULE
NCCCNC1=NC(C2=CC=CC=C2)=CC3=NC=CC=C31
   40    42     0
SMALL
USER_CHARGE


@<TRIPOS>ATOM
      1 N1         -1.9453    3.9371    1.7271 N.4       1 <1>         0.4450
      2 H2         -2.4178    4.4251    0.9810 H         1 <1>         0.1478
      3 H3         -0.9497    4.0792    1.6444 H         1 <1>         0.1478
      4 H4         -2.2631    4.2931    2.6161 H         1 <1>         0.1478
      5 C5         -2.2439    2.5014    1.6395 C.3       1 <1>        -0.1130
      6 C6         -3.7534    2.2859    1.7649 C.3       1 <1>        -0.0568
      7 C7         -4.0644    0.7907    1.6736 C.3       1 <1>        -0.0347
      8 N8         -5.5098    0.5843    1.7937 N.pl3     1 <1>        -0.3731
      9 C9         -6.0325   -0.6953    1.7399 C.ar      1 <1>         0.0069
     10 C10        -7.4269   -0.8939    1.8499 C.ar      1 <1>         0.0192
     11 C11        -8.3185    0.1759    2.0141 C.ar      1 <1>        -0.0670
     12 C12        -9.6539   -0.1072    2.1118 C.ar      1 <1>        -0.0604
     13 C13       -10.0922   -1.4265    2.0475 C.ar      1 <1>        -0.0269
     14 N14        -9.2543   -2.4256    1.8941 N.ar      1 <1>        -0.3824
     15 C15        -7.9407   -2.2147    1.7922 C.ar      1 <1>        -0.0081
     16 C16        -7.0296   -3.2733    1.6269 C.ar      1 <1>        -0.0119
     17 C17        -5.6822   -2.9832    1.5279 C.ar      1 <1>        -0.0077
     18 C18        -4.7147   -4.0936    1.3530 C.ar      1 <1>        -0.0352
     19 C19        -5.1661   -5.4105    1.2845 C.ar      1 <1>        -0.0783
     20 C20        -4.2612   -6.4397    1.1218 C.ar      1 <1>        -0.0979
     21 C21        -2.9086   -6.1664    1.0267 C.ar      1 <1>        -0.1028
     22 C22        -2.4548   -4.8613    1.0945 C.ar      1 <1>        -0.0984
     23 C23        -3.3511   -3.8236    1.2508 C.ar      1 <1>        -0.0778
     24 N24        -5.2301   -1.7291    1.5805 N.ar      1 <1>        -0.3617
     25 H25        -1.9005    2.1169    0.6791 H         1 <1>         0.0934
     26 H26        -1.7334    1.9742    2.4455 H         1 <1>         0.0934
     27 H27        -4.0968    2.6704    2.7253 H         1 <1>         0.0631
     28 H28        -4.2639    2.8131    0.9589 H         1 <1>         0.0631
     29 H29        -3.7210    0.4061    0.7132 H         1 <1>         0.1060
     30 H30        -3.5539    0.2635    2.4796 H         1 <1>         0.1060
     31 H31        -6.1002    1.3449    1.9110 H         1 <1>         0.3012
     32 H32        -7.9616    1.1941    2.0624 H         1 <1>         0.1398
     33 H33       -10.3676    0.6933    2.2391 H         1 <1>         0.1255
     34 H34       -11.1492   -1.6339    2.1262 H         1 <1>         0.2228
     35 H35        -7.3769   -4.2948    1.5788 H         1 <1>         0.1465
     36 H36        -6.2220   -5.6250    1.3590 H         1 <1>         0.1308
     37 H37        -4.6098   -7.4606    1.0689 H         1 <1>         0.1215
     38 H38        -2.2039   -6.9749    0.8993 H         1 <1>         0.1240
     39 H39        -1.3976   -4.6538    1.0200 H         1 <1>         0.1194
     40 H40        -2.9958   -2.8051    1.3033 H         1 <1>         0.1328
@<TRIPOS>BOND
     1    1    2 1
     2    1    3 1
     3    1    4 1
     4    1    5 1
     5    5    6 1
     6    5   25 1
     7    5   26 1
     8    6    7 1
     9    6   27 1
    10    6   28 1
    11    7    8 1
    12    7   29 1
    13    7   30 1
    14    8    9 1
    15    8   31 1
    16    9   24 ar
    17    9   10 ar
    18   10   15 ar
    19   10   11 ar
    20   11   12 ar
    21   11   32 1
    22   12   13 ar
    23   12   33 1
    24   13   14 ar
    25   13   34 1
    26   14   15 ar
    27   15   16 ar
    28   16   17 ar
    29   16   35 1
    30   17   18 1
    31   17   24 ar
    32   18   23 ar
    33   18   19 ar
    34   19   20 ar
    35   19   36 1
    36   20   21 ar
    37   20   37 1
    38   21   22 ar
    39   21   38 1
    40   22   23 ar
    41   22   39 1
    42   23   40 1
@<TRIPOS>Similarity
1.0271
@<TRIPOS>ShapeSim
0.6393
@<TRIPOS>PharmSim
0.3878
# END
# Name:		OC1=CC(C=C(C2=NN(C(C)C)C3=C2C(N)=NC=N3)N4)=C4C=C1
# Created and modified by SHAFTS on Sun Mar 21 16:57:45 2021

# 

@<TRIPOS>MOLECULE
OC1=CC(C=C(C2=NN(C(C)C)C3=C2C(N)=NC=N3)N4)=C4C=C1
   39    42     0
SMALL
USER_CHARGE


@<TRIPOS>ATOM
      1 C1         -3.8421   -7.8460    2.2622 C.3       1 <1>        -0.0325
      2 C2         -3.3862   -7.1565    0.9748 C.3       1 <1>         0.0085
      3 C3         -4.1769   -7.7146   -0.2102 C.3       1 <1>        -0.0325
      4 N4         -3.6219   -5.7146    1.0833 N.pl3     1 <1>        -0.2785
      5 N5         -4.8678   -5.1131    1.2901 N.2       1 <1>        -0.2782
      6 C6         -4.7301   -3.8074    1.3399 C.2       1 <1>         0.0704
      7 C7         -5.8100   -2.8205    1.5445 C.2       1 <1>        -0.0007
      8 C8         -6.8393   -2.9565    2.4184 C.2       1 <1>        -0.0438
      9 C9         -7.6655   -1.7569    2.2947 C.ar      1 <1>        -0.0534
     10 C10        -8.8385   -1.3227    2.9192 C.ar      1 <1>        -0.0540
     11 C11        -9.3863   -0.1045    2.5704 C.ar      1 <1>        -0.0360
     12 O12       -10.5271    0.3229    3.1745 O.3       1 <1>        -0.4424
     13 C13        -8.7751    0.6886    1.6028 C.ar      1 <1>        -0.0589
     14 C14        -7.6190    0.2713    0.9806 C.ar      1 <1>        -0.0636
     15 C15        -7.0507   -0.9523    1.3165 C.ar      1 <1>        -0.0576
     16 N16        -5.9236   -1.6196    0.8825 N.pl3     1 <1>        -0.3521
     17 C17        -3.3082   -3.5118    1.1557 C.ar      1 <1>         0.0855
     18 C18        -2.5359   -2.3403    1.1091 C.ar      1 <1>         0.0049
     19 N19        -3.1232   -1.0985    1.2578 N.pl3     1 <1>        -0.3617
     20 N20        -1.2249   -2.4556    0.9189 N.ar      1 <1>        -0.3433
     21 C21        -0.6580   -3.6402    0.7766 C.ar      1 <1>         0.0422
     22 N22        -1.3410   -4.7634    0.8131 N.ar      1 <1>        -0.3397
     23 C23        -2.6600   -4.7515    1.0042 C.ar      1 <1>         0.0539
     24 H24        -4.9054   -7.6622    2.4159 H         1 <1>         0.0521
     25 H25        -3.6668   -8.9188    2.1815 H         1 <1>         0.0593
     26 H26        -3.2788   -7.4484    3.1065 H         1 <1>         0.0450
     27 H27        -2.3229   -7.3403    0.8210 H         1 <1>         0.1419
     28 H28        -5.2402   -7.5308   -0.0565 H         1 <1>         0.0521
     29 H29        -3.8522   -7.2233   -1.1274 H         1 <1>         0.0450
     30 H30        -4.0016   -8.7874   -0.2910 H         1 <1>         0.0593
     31 H31        -7.0149   -3.7923    3.0795 H         1 <1>         0.1533
     32 H32        -9.3137   -1.9369    3.6699 H         1 <1>         0.1380
     33 H33       -10.3769    0.8420    3.9764 H         1 <1>         0.3531
     34 H34        -9.2118    1.6400    1.3373 H         1 <1>         0.1397
     35 H35        -7.1540    0.8948    0.2313 H         1 <1>         0.1324
     36 H36        -5.3047   -1.2918    0.2114 H         1 <1>         0.3329
     37 H37        -4.0517   -1.0306    1.5306 H         1 <1>         0.2810
     38 H38        -2.6072   -0.2947    1.0894 H         1 <1>         0.2810
     39 H39         0.4100   -3.6882    0.6236 H         1 <1>         0.3176
@<TRIPOS>BOND
     1    1    2 1
     2    1   24 1
     3    1   25 1
     4    1   26 1
     5    2    3 1
     6    2    4 1
     7    2   27 1
     8    3   28 1
     9    3   29 1
    10    3   30 1
    11    4   23 1
    12    4    5 1
    13    5    6 2
    14    6    7 1
    15    6   17 1
    16    7   16 1
    17    7    8 2
    18    8    9 1
    19    8   31 1
    20    9   15 ar
    21    9   10 ar
    22   10   11 ar
    23   10   32 1
    24   11   12 1
    25   11   13 ar
    26   12   33 1
    27   13   14 ar
    28   13   34 1
    29   14   15 ar
    30   14   35 1
    31   15   16 1
    32   16   36 1
    33   17   23 ar
    34   17   18 ar
    35   18   19 1
    36   18   20 ar
    37   19   37 1
    38   19   38 1
    39   20   21 ar
    40   21   22 ar
    41   21   39 1
    42   22   23 ar
@<TRIPOS>Similarity
1.0264
@<TRIPOS>ShapeSim
0.6861
@<TRIPOS>PharmSim
0.3403
# END
# Name:		CC(C)N1C2=NC=NC(=C2C(=N1)C3=CC4=C(N3)C=CC(=C4)O)N
# Created and modified by SHAFTS on Sun Mar 21 16:57:45 2021

# 

@<TRIPOS>MOLECULE
CC(C)N1C2=NC=NC(=C2C(=N1)C3=CC4=C(N3)C=CC(=C4)O)N
   39    42     0
SMALL
USER_CHARGE


@<TRIPOS>ATOM
      1 C1         -3.8421   -7.8460    2.2622 C.3       1 <1>        -0.0325
      2 C2         -3.3862   -7.1565    0.9748 C.3       1 <1>         0.0085
      3 C3         -4.1769   -7.7146   -0.2102 C.3       1 <1>        -0.0325
      4 N4         -3.6219   -5.7146    1.0833 N.pl3     1 <1>        -0.2785
      5 N5         -4.8678   -5.1131    1.2901 N.2       1 <1>        -0.2782
      6 C6         -4.7301   -3.8074    1.3399 C.2       1 <1>         0.0704
      7 C7         -5.8100   -2.8205    1.5445 C.2       1 <1>        -0.0007
      8 C8         -6.8393   -2.9565    2.4184 C.2       1 <1>        -0.0438
      9 C9         -7.6655   -1.7569    2.2947 C.ar      1 <1>        -0.0534
     10 C10        -8.8385   -1.3227    2.9192 C.ar      1 <1>        -0.0540
     11 C11        -9.3863   -0.1045    2.5704 C.ar      1 <1>        -0.0360
     12 O12       -10.5271    0.3229    3.1745 O.3       1 <1>        -0.4424
     13 C13        -8.7751    0.6886    1.6028 C.ar      1 <1>        -0.0589
     14 C14        -7.6190    0.2713    0.9806 C.ar      1 <1>        -0.0636
     15 C15        -7.0507   -0.9523    1.3165 C.ar      1 <1>        -0.0576
     16 N16        -5.9236   -1.6196    0.8825 N.pl3     1 <1>        -0.3521
     17 C17        -3.3082   -3.5118    1.1557 C.ar      1 <1>         0.0855
     18 C18        -2.5359   -2.3403    1.1091 C.ar      1 <1>         0.0049
     19 N19        -3.1232   -1.0985    1.2578 N.pl3     1 <1>        -0.3617
     20 N20        -1.2249   -2.4556    0.9189 N.ar      1 <1>        -0.3433
     21 C21        -0.6580   -3.6402    0.7766 C.ar      1 <1>         0.0422
     22 N22        -1.3410   -4.7634    0.8131 N.ar      1 <1>        -0.3397
     23 C23        -2.6600   -4.7515    1.0042 C.ar      1 <1>         0.0539
     24 H24        -4.9054   -7.6622    2.4159 H         1 <1>         0.0521
     25 H25        -3.6668   -8.9188    2.1815 H         1 <1>         0.0593
     26 H26        -3.2788   -7.4484    3.1065 H         1 <1>         0.0450
     27 H27        -2.3229   -7.3403    0.8210 H         1 <1>         0.1419
     28 H28        -5.2402   -7.5308   -0.0565 H         1 <1>         0.0521
     29 H29        -3.8522   -7.2233   -1.1274 H         1 <1>         0.0450
     30 H30        -4.0016   -8.7874   -0.2910 H         1 <1>         0.0593
     31 H31        -7.0149   -3.7923    3.0795 H         1 <1>         0.1533
     32 H32        -9.3137   -1.9369    3.6699 H         1 <1>         0.1380
     33 H33       -10.3769    0.8420    3.9764 H         1 <1>         0.3531
     34 H34        -9.2118    1.6400    1.3373 H         1 <1>         0.1397
     35 H35        -7.1540    0.8948    0.2313 H         1 <1>         0.1324
     36 H36        -5.3047   -1.2918    0.2114 H         1 <1>         0.3329
     37 H37        -4.0517   -1.0306    1.5306 H         1 <1>         0.2810
     38 H38        -2.6072   -0.2947    1.0894 H         1 <1>         0.2810
     39 H39         0.4100   -3.6882    0.6236 H         1 <1>         0.3176
@<TRIPOS>BOND
     1    1    2 1
     2    1   24 1
     3    1   25 1
     4    1   26 1
     5    2    3 1
     6    2    4 1
     7    2   27 1
     8    3   28 1
     9    3   29 1
    10    3   30 1
    11    4   23 1
    12    4    5 1
    13    5    6 2
    14    6    7 1
    15    6   17 1
    16    7   16 1
    17    7    8 2
    18    8    9 1
    19    8   31 1
    20    9   15 ar
    21    9   10 ar
    22   10   11 ar
    23   10   32 1
    24   11   12 1
    25   11   13 ar
    26   12   33 1
    27   13   14 ar
    28   13   34 1
    29   14   15 ar
    30   14   35 1
    31   15   16 1
    32   16   36 1
    33   17   23 ar
    34   17   18 ar
    35   18   19 1
    36   18   20 ar
    37   19   37 1
    38   19   38 1
    39   20   21 ar
    40   21   22 ar
    41   21   39 1
    42   22   23 ar
@<TRIPOS>Similarity
1.0264
@<TRIPOS>ShapeSim
0.6861
@<TRIPOS>PharmSim
0.3403
# END
# Name:		C1CC(C2=C(C1)C=CC=N2)N(CCCCN)CC3CC4=CC=CC=C4CN3
# Created and modified by SHAFTS on Sun Mar 21 16:57:45 2021

# 

@<TRIPOS>MOLECULE
C1CC(C2=C(C1)C=CC=N2)N(CCCCN)CC3CC4=CC=CC=C4CN3
   61    64     0
SMALL
USER_CHARGE


@<TRIPOS>ATOM
      1 N1          1.3372   -7.4498   -1.9646 N.4       1 <1>           -nan
      2 H2          2.2756   -7.2572   -2.2813 H         1 <1>           -nan
      3 H3          0.7404   -7.6147   -2.7613 H         1 <1>           -nan
      4 H4          1.3430   -8.2677   -1.3736 H         1 <1>           -nan
      5 C5          0.8314   -6.2996   -1.2036 C.3       1 <1>           -nan
      6 C6         -0.5916   -6.5917   -0.7232 C.3       1 <1>           -nan
      7 C7         -1.1184   -5.3937    0.0693 C.3       1 <1>           -nan
      8 C8         -2.5413   -5.6859    0.5497 C.3       1 <1>           -nan
      9 N9         -3.1016   -4.4836    1.1810 N.3       1 <1>           -nan
     10 C10        -4.5443   -4.6344    1.4129 C.3       1 <1>           -nan
     11 C11        -5.1628   -3.2624    1.6881 C.3       1 <1>           -nan
     12 H12        -4.7562   -2.8569    2.6146 H         1 <1>           -nan
     13 C13        -6.6811   -3.3987    1.8101 C.3       1 <1>           -nan
     14 C14        -7.3142   -2.0314    1.8519 C.ar      1 <1>           -nan
     15 C15        -8.6202   -1.9170    2.3005 C.ar      1 <1>           -nan
     16 C16        -9.2342   -0.6809    2.3498 C.ar      1 <1>           -nan
     17 C17        -8.5427    0.4468    1.9494 C.ar      1 <1>           -nan
     18 C18        -7.2408    0.3337    1.5036 C.ar      1 <1>           -nan
     19 C19        -6.6219   -0.9062    1.4558 C.ar      1 <1>           -nan
     20 C20        -5.1984   -0.9822    0.9703 C.3       1 <1>           -nan
     21 N21        -4.8580   -2.3510    0.5745 N.4       1 <1>           -nan
     22 H22        -3.8756   -2.4032    0.3502 H         1 <1>           -nan
     23 H23        -5.4031   -2.6145   -0.2326 H         1 <1>           -nan
     24 C24        -2.3975   -4.1688    2.4312 C.3       1 <1>           -nan
     25 H25        -2.9831   -3.4479    3.0018 H         1 <1>           -nan
     26 C26        -2.2329   -5.4462    3.2520 C.3       1 <1>           -nan
     27 C27        -1.3176   -5.1430    4.4438 C.3       1 <1>           -nan
     28 C28         0.0982   -4.9137    3.9175 C.3       1 <1>           -nan
     29 C29         0.0890   -3.9082    2.7978 C.ar      1 <1>           -nan
     30 C30         1.2936   -3.3013    2.4558 C.ar      1 <1>           -nan
     31 C31         1.3073   -2.3777    1.4245 C.ar      1 <1>           -nan
     32 C32         0.1242   -2.0914    0.7701 C.ar      1 <1>           -nan
     33 N33        -0.9964   -2.6832    1.1224 N.ar      1 <1>           -nan
     34 C34        -1.0523   -3.5713    2.1073 C.ar      1 <1>           -nan
     35 H35         1.4760   -6.1214   -0.3429 H         1 <1>           -nan
     36 H36         0.8251   -5.4160   -1.8419 H         1 <1>           -nan
     37 H37        -1.2362   -6.7699   -1.5840 H         1 <1>           -nan
     38 H38        -0.5853   -7.4753   -0.0850 H         1 <1>           -nan
     39 H39        -0.4737   -5.2156    0.9300 H         1 <1>           -nan
     40 H40        -1.1246   -4.5102   -0.5690 H         1 <1>           -nan
     41 H41        -3.1604   -5.9717   -0.3008 H         1 <1>           -nan
     42 H42        -2.5203   -6.5003    1.2738 H         1 <1>           -nan
     43 H43        -5.0103   -5.0726    0.5303 H         1 <1>           -nan
     44 H44        -4.7082   -5.2857    2.2715 H         1 <1>           -nan
     45 H45        -7.0655   -3.9501    0.9520 H         1 <1>           -nan
     46 H46        -6.9241   -3.9388    2.7252 H         1 <1>           -nan
     47 H47        -9.1605   -2.7985    2.6127 H         1 <1>           -nan
     48 H48       -10.2524   -0.5957    2.7000 H         1 <1>           -nan
     49 H49        -9.0199    1.4150    1.9849 H         1 <1>           -nan
     50 H50        -6.7016    1.2156    1.1905 H         1 <1>           -nan
     51 H51        -5.0749   -0.3194    0.1138 H         1 <1>           -nan
     52 H52        -4.5287   -0.6643    1.7694 H         1 <1>           -nan
     53 H53        -3.2065   -5.7777    3.6128 H         1 <1>           -nan
     54 H54        -1.7840   -6.2236    2.6337 H         1 <1>           -nan
     55 H55        -1.6678   -4.2476    4.9573 H         1 <1>           -nan
     56 H56        -1.3207   -5.9872    5.1334 H         1 <1>           -nan
     57 H57         0.7274   -4.5445    4.7273 H         1 <1>           -nan
     58 H58         0.5024   -5.8571    3.5503 H         1 <1>           -nan
     59 H59         2.2020   -3.5463    2.9858 H         1 <1>           -nan
     60 H60         2.2264   -1.8891    1.1367 H         1 <1>           -nan
     61 H61         0.1197   -1.3749   -0.0380 H         1 <1>           -nan
@<TRIPOS>BOND
     1    1    2 1
     2    1    3 1
     3    1    4 1
     4    1    5 1
     5    5    6 1
     6    5   35 1
     7    5   36 1
     8    6    7 1
     9    6   37 1
    10    6   38 1
    11    7    8 1
    12    7   39 1
    13    7   40 1
    14    8    9 1
    15    8   41 1
    16    8   42 1
    17    9   10 1
    18    9   24 1
    19   10   11 1
    20   10   43 1
    21   10   44 1
    22   11   12 1
    23   11   21 1
    24   11   13 1
    25   13   14 1
    26   13   45 1
    27   13   46 1
    28   14   19 ar
    29   14   15 ar
    30   15   16 ar
    31   15   47 1
    32   16   17 ar
    33   16   48 1
    34   17   18 ar
    35   17   49 1
    36   18   19 ar
    37   18   50 1
    38   19   20 1
    39   20   21 1
    40   20   51 1
    41   20   52 1
    42   21   22 1
    43   21   23 1
    44   24   25 1
    45   24   34 1
    46   24   26 1
    47   26   27 1
    48   26   53 1
    49   26   54 1
    50   27   28 1
    51   27   55 1
    52   27   56 1
    53   28   29 1
    54   28   57 1
    55   28   58 1
    56   29   34 ar
    57   29   30 ar
    58   30   31 ar
    59   30   59 1
    60   31   32 ar
    61   31   60 1
    62   32   33 ar
    63   32   61 1
    64   33   34 ar
@<TRIPOS>Similarity
1.0264
@<TRIPOS>ShapeSim
0.7006
@<TRIPOS>PharmSim
0.3259
# END
# Name:		NCCCCN([C@H]1CCCC2=C1N=CC=C2)C[C@H]3CC4=CC=CC=C4CN3
# Created and modified by SHAFTS on Sun Mar 21 16:57:45 2021

# 

@<TRIPOS>MOLECULE
NCCCCN([C@H]1CCCC2=C1N=CC=C2)C[C@H]3CC4=CC=CC=C4CN3
   61    64     0
SMALL
USER_CHARGE


@<TRIPOS>ATOM
      1 N1          1.3372   -7.4498   -1.9646 N.4       1 <1>           -nan
      2 H2          2.2756   -7.2572   -2.2813 H         1 <1>           -nan
      3 H3          0.7404   -7.6147   -2.7613 H         1 <1>           -nan
      4 H4          1.3430   -8.2677   -1.3736 H         1 <1>           -nan
      5 C5          0.8314   -6.2996   -1.2036 C.3       1 <1>           -nan
      6 C6         -0.5916   -6.5917   -0.7232 C.3       1 <1>           -nan
      7 C7         -1.1184   -5.3937    0.0693 C.3       1 <1>           -nan
      8 C8         -2.5413   -5.6859    0.5497 C.3       1 <1>           -nan
      9 N9         -3.1016   -4.4836    1.1810 N.3       1 <1>           -nan
     10 C10        -4.5443   -4.6344    1.4129 C.3       1 <1>           -nan
     11 C11        -5.1628   -3.2624    1.6881 C.3       1 <1>           -nan
     12 H12        -4.7562   -2.8569    2.6146 H         1 <1>           -nan
     13 C13        -6.6811   -3.3987    1.8101 C.3       1 <1>           -nan
     14 C14        -7.3142   -2.0314    1.8519 C.ar      1 <1>           -nan
     15 C15        -8.6202   -1.9170    2.3005 C.ar      1 <1>           -nan
     16 C16        -9.2342   -0.6809    2.3498 C.ar      1 <1>           -nan
     17 C17        -8.5427    0.4468    1.9494 C.ar      1 <1>           -nan
     18 C18        -7.2408    0.3337    1.5036 C.ar      1 <1>           -nan
     19 C19        -6.6219   -0.9062    1.4558 C.ar      1 <1>           -nan
     20 C20        -5.1984   -0.9822    0.9703 C.3       1 <1>           -nan
     21 N21        -4.8580   -2.3510    0.5745 N.4       1 <1>           -nan
     22 H22        -3.8756   -2.4032    0.3502 H         1 <1>           -nan
     23 H23        -5.4031   -2.6145   -0.2326 H         1 <1>           -nan
     24 C24        -2.3975   -4.1688    2.4312 C.3       1 <1>           -nan
     25 H25        -2.9831   -3.4479    3.0018 H         1 <1>           -nan
     26 C26        -2.2329   -5.4462    3.2520 C.3       1 <1>           -nan
     27 C27        -1.3176   -5.1430    4.4438 C.3       1 <1>           -nan
     28 C28         0.0982   -4.9137    3.9175 C.3       1 <1>           -nan
     29 C29         0.0890   -3.9082    2.7978 C.ar      1 <1>           -nan
     30 C30         1.2936   -3.3013    2.4558 C.ar      1 <1>           -nan
     31 C31         1.3073   -2.3777    1.4245 C.ar      1 <1>           -nan
     32 C32         0.1242   -2.0914    0.7701 C.ar      1 <1>           -nan
     33 N33        -0.9964   -2.6832    1.1224 N.ar      1 <1>           -nan
     34 C34        -1.0523   -3.5713    2.1073 C.ar      1 <1>           -nan
     35 H35         1.4760   -6.1214   -0.3429 H         1 <1>           -nan
     36 H36         0.8251   -5.4160   -1.8419 H         1 <1>           -nan
     37 H37        -1.2362   -6.7699   -1.5840 H         1 <1>           -nan
     38 H38        -0.5853   -7.4753   -0.0850 H         1 <1>           -nan
     39 H39        -0.4737   -5.2156    0.9300 H         1 <1>           -nan
     40 H40        -1.1246   -4.5102   -0.5690 H         1 <1>           -nan
     41 H41        -3.1604   -5.9717   -0.3008 H         1 <1>           -nan
     42 H42        -2.5203   -6.5003    1.2738 H         1 <1>           -nan
     43 H43        -5.0103   -5.0726    0.5303 H         1 <1>           -nan
     44 H44        -4.7082   -5.2857    2.2715 H         1 <1>           -nan
     45 H45        -7.0655   -3.9501    0.9520 H         1 <1>           -nan
     46 H46        -6.9241   -3.9388    2.7252 H         1 <1>           -nan
     47 H47        -9.1605   -2.7985    2.6127 H         1 <1>           -nan
     48 H48       -10.2524   -0.5957    2.7000 H         1 <1>           -nan
     49 H49        -9.0199    1.4150    1.9849 H         1 <1>           -nan
     50 H50        -6.7016    1.2156    1.1905 H         1 <1>           -nan
     51 H51        -5.0749   -0.3194    0.1138 H         1 <1>           -nan
     52 H52        -4.5287   -0.6643    1.7694 H         1 <1>           -nan
     53 H53        -3.2065   -5.7777    3.6128 H         1 <1>           -nan
     54 H54        -1.7840   -6.2236    2.6337 H         1 <1>           -nan
     55 H55        -1.6678   -4.2476    4.9573 H         1 <1>           -nan
     56 H56        -1.3207   -5.9872    5.1334 H         1 <1>           -nan
     57 H57         0.7274   -4.5445    4.7273 H         1 <1>           -nan
     58 H58         0.5024   -5.8571    3.5503 H         1 <1>           -nan
     59 H59         2.2020   -3.5463    2.9858 H         1 <1>           -nan
     60 H60         2.2264   -1.8891    1.1367 H         1 <1>           -nan
     61 H61         0.1197   -1.3749   -0.0380 H         1 <1>           -nan
@<TRIPOS>BOND
     1    1    2 1
     2    1    3 1
     3    1    4 1
     4    1    5 1
     5    5    6 1
     6    5   35 1
     7    5   36 1
     8    6    7 1
     9    6   37 1
    10    6   38 1
    11    7    8 1
    12    7   39 1
    13    7   40 1
    14    8    9 1
    15    8   41 1
    16    8   42 1
    17    9   10 1
    18    9   24 1
    19   10   11 1
    20   10   43 1
    21   10   44 1
    22   11   12 1
    23   11   21 1
    24   11   13 1
    25   13   14 1
    26   13   45 1
    27   13   46 1
    28   14   19 ar
    29   14   15 ar
    30   15   16 ar
    31   15   47 1
    32   16   17 ar
    33   16   48 1
    34   17   18 ar
    35   17   49 1
    36   18   19 ar
    37   18   50 1
    38   19   20 1
    39   20   21 1
    40   20   51 1
    41   20   52 1
    42   21   22 1
    43   21   23 1
    44   24   25 1
    45   24   34 1
    46   24   26 1
    47   26   27 1
    48   26   53 1
    49   26   54 1
    50   27   28 1
    51   27   55 1
    52   27   56 1
    53   28   29 1
    54   28   57 1
    55   28   58 1
    56   29   34 ar
    57   29   30 ar
    58   30   31 ar
    59   30   59 1
    60   31   32 ar
    61   31   60 1
    62   32   33 ar
    63   32   61 1
    64   33   34 ar
@<TRIPOS>Similarity
1.0264
@<TRIPOS>ShapeSim
0.7006
@<TRIPOS>PharmSim
0.3259
# END
# Name:		O=C1C(O)=C(OC2=CC(O)=CC(O)=C21)C3=CC(OC)=C(O)C=C3
# Created and modified by SHAFTS on Sun Mar 21 16:57:45 2021

# 

@<TRIPOS>MOLECULE
O=C1C(O)=C(OC2=CC(O)=CC(O)=C21)C3=CC(OC)=C(O)C=C3
   34    36     0
SMALL
USER_CHARGE


@<TRIPOS>ATOM
      1 C1         -6.4885    0.2770    4.5060 C.3       1 <1>         0.0237
      2 O2         -7.5226   -0.2511    3.6731 O.3       1 <1>        -0.4129
      3 C3         -7.1464   -1.1227    2.6993 C.ar      1 <1>         0.0249
      4 C4         -5.8158   -1.4642    2.5546 C.ar      1 <1>        -0.0356
      5 C5         -5.4326   -2.3609    1.5526 C.ar      1 <1>        -0.0170
      6 C6         -4.0137   -2.7296    1.3937 C.2       1 <1>         0.0859
      7 C7         -3.6887   -4.0463    1.2633 C.2       1 <1>         0.0855
      8 O8         -4.6615   -4.9979    1.2799 O.3       1 <1>        -0.4194
      9 C9         -2.3277   -4.4173    1.1096 C.2       1 <1>         0.0948
     10 O10        -1.9989   -5.5868    0.9896 O.2       1 <1>        -0.4898
     11 C11        -1.3283   -3.3372    1.0999 C.ar      1 <1>         0.0412
     12 C12         0.0374   -3.6123    0.9525 C.ar      1 <1>        -0.0241
     13 O13         0.4660   -4.8926    0.8148 O.3       1 <1>        -0.4308
     14 C14         0.9453   -2.5696    0.9479 C.ar      1 <1>        -0.0342
     15 C15         0.5042   -1.2584    1.0893 C.ar      1 <1>        -0.0602
     16 O16         1.4044   -0.2422    1.0834 O.3       1 <1>        -0.5656
     17 C17        -0.8457   -0.9787    1.2355 C.ar      1 <1>        -0.0256
     18 C18        -1.7716   -2.0104    1.2420 C.ar      1 <1>         0.0322
     19 O19        -3.0895   -1.7538    1.3776 O.3       1 <1>        -0.3353
     20 C20        -6.3975   -2.9073    0.7025 C.ar      1 <1>        -0.0616
     21 C21        -7.7238   -2.5617    0.8531 C.ar      1 <1>        -0.0499
     22 C22        -8.1043   -1.6759    1.8509 C.ar      1 <1>         0.0052
     23 O23        -9.4128   -1.3390    1.9952 O.3       1 <1>        -0.4306
     24 H24        -6.9236    0.9568    5.2385 H         1 <1>         0.1194
     25 H25        -5.9853   -0.5403    5.0228 H         1 <1>         0.0904
     26 H26        -5.7678    0.8170    3.8921 H         1 <1>         0.0904
     27 H27        -5.0731   -1.0393    3.2136 H         1 <1>         0.1315
     28 H28        -4.3301   -5.9009    1.1804 H         1 <1>         0.3704
     29 H29         0.5091   -5.1964   -0.1022 H         1 <1>         0.3510
     30 H30         1.9998   -2.7741    0.8348 H         1 <1>         0.1034
     31 H31        -1.1762    0.0437    1.3443 H         1 <1>         0.1034
     32 H32        -6.1047   -3.6000   -0.0726 H         1 <1>         0.1416
     33 H33        -8.4688   -2.9846    0.1954 H         1 <1>         0.1410
     34 H34        -9.9042   -1.9176    2.5942 H         1 <1>         0.3565
@<TRIPOS>BOND
     1    1    2 1
     2    1   24 1
     3    1   25 1
     4    1   26 1
     5    2    3 1
     6    3   22 ar
     7    3    4 ar
     8    4    5 ar
     9    4   27 1
    10    5    6 1
    11    5   20 ar
    12    6   19 1
    13    6    7 2
    14    7    8 1
    15    7    9 1
    16    8   28 1
    17    9   10 2
    18    9   11 1
    19   11   18 ar
    20   11   12 ar
    21   12   13 1
    22   12   14 ar
    23   13   29 1
    24   14   15 ar
    25   14   30 1
    26   15   16 1
    27   15   17 ar
    28   17   18 ar
    29   17   31 1
    30   18   19 1
    31   20   21 ar
    32   20   32 1
    33   21   22 ar
    34   21   33 1
    35   22   23 1
    36   23   34 1
@<TRIPOS>Similarity
1.0251
@<TRIPOS>ShapeSim
0.7694
@<TRIPOS>PharmSim
0.2558
# END
# Name:		COC1=C(C=CC(=C1)C2=C(C(=O)C3=C(C=C(C=C3O2)O)O)O)O
# Created and modified by SHAFTS on Sun Mar 21 16:57:45 2021

# 

@<TRIPOS>MOLECULE
COC1=C(C=CC(=C1)C2=C(C(=O)C3=C(C=C(C=C3O2)O)O)O)O
   34    36     0
SMALL
USER_CHARGE


@<TRIPOS>ATOM
      1 C1         -6.4885    0.2770    4.5060 C.3       1 <1>         0.0237
      2 O2         -7.5226   -0.2511    3.6731 O.3       1 <1>        -0.4129
      3 C3         -7.1464   -1.1227    2.6993 C.ar      1 <1>         0.0249
      4 C4         -5.8158   -1.4642    2.5546 C.ar      1 <1>        -0.0356
      5 C5         -5.4326   -2.3609    1.5526 C.ar      1 <1>        -0.0170
      6 C6         -4.0137   -2.7296    1.3937 C.2       1 <1>         0.0859
      7 C7         -3.6887   -4.0463    1.2633 C.2       1 <1>         0.0855
      8 O8         -4.6615   -4.9979    1.2799 O.3       1 <1>        -0.4194
      9 C9         -2.3277   -4.4173    1.1096 C.2       1 <1>         0.0948
     10 O10        -1.9989   -5.5868    0.9896 O.2       1 <1>        -0.4898
     11 C11        -1.3283   -3.3372    1.0999 C.ar      1 <1>         0.0412
     12 C12         0.0374   -3.6123    0.9525 C.ar      1 <1>        -0.0241
     13 O13         0.4660   -4.8926    0.8148 O.3       1 <1>        -0.4308
     14 C14         0.9453   -2.5696    0.9479 C.ar      1 <1>        -0.0342
     15 C15         0.5042   -1.2584    1.0893 C.ar      1 <1>        -0.0602
     16 O16         1.4044   -0.2422    1.0834 O.3       1 <1>        -0.5656
     17 C17        -0.8457   -0.9787    1.2355 C.ar      1 <1>        -0.0256
     18 C18        -1.7716   -2.0104    1.2420 C.ar      1 <1>         0.0322
     19 O19        -3.0895   -1.7538    1.3776 O.3       1 <1>        -0.3353
     20 C20        -6.3975   -2.9073    0.7025 C.ar      1 <1>        -0.0616
     21 C21        -7.7238   -2.5617    0.8531 C.ar      1 <1>        -0.0499
     22 C22        -8.1043   -1.6759    1.8509 C.ar      1 <1>         0.0052
     23 O23        -9.4128   -1.3390    1.9952 O.3       1 <1>        -0.4306
     24 H24        -6.9236    0.9568    5.2385 H         1 <1>         0.1194
     25 H25        -5.9853   -0.5403    5.0228 H         1 <1>         0.0904
     26 H26        -5.7678    0.8170    3.8921 H         1 <1>         0.0904
     27 H27        -5.0731   -1.0393    3.2136 H         1 <1>         0.1315
     28 H28        -4.3301   -5.9009    1.1804 H         1 <1>         0.3704
     29 H29         0.5091   -5.1964   -0.1022 H         1 <1>         0.3510
     30 H30         1.9998   -2.7741    0.8348 H         1 <1>         0.1034
     31 H31        -1.1762    0.0437    1.3443 H         1 <1>         0.1034
     32 H32        -6.1047   -3.6000   -0.0726 H         1 <1>         0.1416
     33 H33        -8.4688   -2.9846    0.1954 H         1 <1>         0.1410
     34 H34        -9.9042   -1.9176    2.5942 H         1 <1>         0.3565
@<TRIPOS>BOND
     1    1    2 1
     2    1   24 1
     3    1   25 1
     4    1   26 1
     5    2    3 1
     6    3   22 ar
     7    3    4 ar
     8    4    5 ar
     9    4   27 1
    10    5    6 1
    11    5   20 ar
    12    6   19 1
    13    6    7 2
    14    7    8 1
    15    7    9 1
    16    8   28 1
    17    9   10 2
    18    9   11 1
    19   11   18 ar
    20   11   12 ar
    21   12   13 1
    22   12   14 ar
    23   13   29 1
    24   14   15 ar
    25   14   30 1
    26   15   16 1
    27   15   17 ar
    28   17   18 ar
    29   17   31 1
    30   18   19 1
    31   20   21 ar
    32   20   32 1
    33   21   22 ar
    34   21   33 1
    35   22   23 1
    36   23   34 1
@<TRIPOS>Similarity
1.0251
@<TRIPOS>ShapeSim
0.7694
@<TRIPOS>PharmSim
0.2558
# END
# Name:		C1=CC(=CC(=C1)N)C2=CC3=C(N2)N=CN=C3OC4=CC=CC(=C4)O
# Created and modified by SHAFTS on Sun Mar 21 16:57:45 2021

# 

@<TRIPOS>MOLECULE
C1=CC(=CC(=C1)N)C2=CC3=C(N2)N=CN=C3OC4=CC=CC(=C4)O
   38    41     0
SMALL
USER_CHARGE


@<TRIPOS>ATOM
      1 N1        -11.1025   -1.4921    2.1524 N.pl3     1 <1>        -0.4247
      2 C2         -9.8041   -0.9843    2.0658 C.ar      1 <1>        -0.0996
      3 C3         -9.5870    0.3863    2.1447 C.ar      1 <1>        -0.0780
      4 C4         -8.3038    0.8936    2.0595 C.ar      1 <1>        -0.0935
      5 C5         -7.2299    0.0426    1.8956 C.ar      1 <1>        -0.0794
      6 C6         -7.4374   -1.3358    1.8152 C.ar      1 <1>        -0.0470
      7 C7         -6.2882   -2.2498    1.6392 C.2       1 <1>        -0.0310
      8 C8         -4.9897   -1.8671    1.5485 C.2       1 <1>        -0.0404
      9 C9         -4.2031   -3.0844    1.3836 C.ar      1 <1>         0.0525
     10 C10        -2.8376   -3.3693    1.2357 C.ar      1 <1>         0.1118
     11 O11        -1.9182   -2.3749    1.2269 O.3       1 <1>        -0.3083
     12 C12        -0.6048   -2.7207    1.1814 C.ar      1 <1>         0.0424
     13 C13         0.1695   -2.6600    2.3313 C.ar      1 <1>        -0.0511
     14 C14         1.5051   -3.0122    2.2857 C.ar      1 <1>        -0.0841
     15 C15         2.0728   -3.4248    1.0957 C.ar      1 <1>        -0.0638
     16 C16         1.3026   -3.4870   -0.0573 C.ar      1 <1>        -0.0286
     17 O17         1.8618   -3.8930   -1.2275 O.3       1 <1>        -0.4381
     18 C18        -0.0386   -3.1400   -0.0131 C.ar      1 <1>        -0.0178
     19 N19        -2.4686   -4.6384    1.1049 N.ar      1 <1>        -0.3287
     20 C20        -3.3611   -5.6120    1.1133 C.ar      1 <1>         0.0396
     21 N21        -4.6515   -5.3932    1.2488 N.ar      1 <1>        -0.3460
     22 C22        -5.1201   -4.1549    1.3868 C.ar      1 <1>         0.0204
     23 N23        -6.3702   -3.6226    1.5477 N.pl3     1 <1>        -0.3173
     24 C24        -8.7309   -1.8480    1.9069 C.ar      1 <1>        -0.0581
     25 H25       -11.2536   -2.4489    2.1014 H         1 <1>         0.2501
     26 H26       -11.8528   -0.8881    2.2676 H         1 <1>         0.2501
     27 H27       -10.4236    1.0573    2.2726 H         1 <1>         0.1102
     28 H28        -8.1413    1.9595    2.1211 H         1 <1>         0.1318
     29 H29        -6.2291    0.4429    1.8292 H         1 <1>         0.1205
     30 H30        -4.6116   -0.8563    1.5899 H         1 <1>         0.1496
     31 H31        -0.2718   -2.3372    3.2627 H         1 <1>         0.1316
     32 H32         2.1061   -2.9643    3.1817 H         1 <1>         0.1352
     33 H33         3.1170   -3.6986    1.0625 H         1 <1>         0.1339
     34 H34         1.8099   -4.8467   -1.3783 H         1 <1>         0.3542
     35 H35        -0.6395   -3.1878   -0.9091 H         1 <1>         0.1388
     36 H36        -3.0175   -6.6301    1.0040 H         1 <1>         0.3104
     37 H37        -7.1925   -4.1353    1.5894 H         1 <1>         0.3480
     38 H38        -8.8974   -2.9134    1.8454 H         1 <1>         0.1145
@<TRIPOS>BOND
     1    1    2 1
     2    1   25 1
     3    1   26 1
     4    2   24 ar
     5    2    3 ar
     6    3    4 ar
     7    3   27 1
     8    4    5 ar
     9    4   28 1
    10    5    6 ar
    11    5   29 1
    12    6    7 1
    13    6   24 ar
    14    7   23 1
    15    7    8 2
    16    8    9 1
    17    8   30 1
    18    9   22 ar
    19    9   10 ar
    20   10   11 1
    21   10   19 ar
    22   11   12 1
    23   12   18 ar
    24   12   13 ar
    25   13   14 ar
    26   13   31 1
    27   14   15 ar
    28   14   32 1
    29   15   16 ar
    30   15   33 1
    31   16   17 1
    32   16   18 ar
    33   17   34 1
    34   18   35 1
    35   19   20 ar
    36   20   21 ar
    37   20   36 1
    38   21   22 ar
    39   22   23 1
    40   23   37 1
    41   24   38 1
@<TRIPOS>Similarity
1.0243
@<TRIPOS>ShapeSim
0.8130
@<TRIPOS>PharmSim
0.2113
# END
# Name:		O=P(OC)(OC)OC(C1=CC=C(Cl)C=C1)P(OC)(OC)=O
# Created and modified by SHAFTS on Sun Mar 21 16:57:45 2021

# 

@<TRIPOS>MOLECULE
O=P(OC)(OC)OC(C1=CC=C(Cl)C=C1)P(OC)(OC)=O
   38    38     0
SMALL
USER_CHARGE


@<TRIPOS>ATOM
      1 C1         -2.5456   -2.2547   -1.5612 C.3       1 <1>         0.0330
      2 O2         -2.2637   -3.4999   -0.9191 O.3       1 <1>        -0.2655
      3 P3         -2.0234   -3.6338    0.6672 P.3       1 <1>         0.4039
      4 O4         -1.7569   -5.0491    1.0080 O.2       1 <1>        -0.2862
      5 O5         -0.7612   -2.7314    1.0970 O.3       1 <1>        -0.2672
      6 C6          0.5709   -2.9942    0.6517 C.3       1 <1>         0.0328
      7 O7         -3.3354   -3.1304    1.4531 O.3       1 <1>        -0.2113
      8 C8         -4.5974   -3.7953    1.3667 C.3       1 <1>         0.2731
      9 H9         -4.6915   -4.2708    0.3903 H         1 <1>         0.1415
     10 C10        -5.7072   -2.7917    1.5458 C.ar      1 <1>        -0.0416
     11 C11        -5.5034   -1.6677    2.3243 C.ar      1 <1>        -0.0826
     12 C12        -6.5210   -0.7469    2.4889 C.ar      1 <1>        -0.0647
     13 C13        -7.7436   -0.9503    1.8743 C.ar      1 <1>        -0.0115
     14 Cl14       -9.0220    0.2061    2.0801 Cl        1 <1>        -0.1374
     15 C15        -7.9470   -2.0753    1.0951 C.ar      1 <1>        -0.0712
     16 C16        -6.9269   -2.9926    0.9267 C.ar      1 <1>        -0.0926
     17 P17        -4.7074   -5.0624    2.6728 P.3       1 <1>         0.3165
     18 O18        -4.5796   -4.4168    3.9985 O.2       1 <1>        -0.3169
     19 O19        -6.1291   -5.8114    2.5754 O.3       1 <1>        -0.2922
     20 C20        -6.5616   -6.7869    3.5261 C.3       1 <1>         0.0294
     21 O21        -3.5216   -6.1346    2.4815 O.3       1 <1>        -0.2774
     22 C22        -3.2736   -7.1943    3.4076 C.3       1 <1>         0.0367
     23 H23        -3.4630   -1.8334   -1.1502 H         1 <1>         0.0872
     24 H24        -1.7203   -1.5632   -1.3913 H         1 <1>         0.0872
     25 H25        -2.6685   -2.4177   -2.6319 H         1 <1>         0.1232
     26 H26         0.8736   -3.9889    0.9784 H         1 <1>         0.0982
     27 H27         0.6071   -2.9425   -0.4365 H         1 <1>         0.0838
     28 H28         1.2481   -2.2515    1.0735 H         1 <1>         0.1199
     29 H29        -4.5490   -1.5093    2.8044 H         1 <1>         0.1528
     30 H30        -6.3617    0.1310    3.0975 H         1 <1>         0.1378
     31 H31        -8.9014   -2.2348    0.6154 H         1 <1>         0.1360
     32 H32        -7.0854   -3.8707    0.3182 H         1 <1>         0.1351
     33 H33        -5.8593   -7.6203    3.5366 H         1 <1>         0.0887
     34 H34        -6.6037   -6.3347    4.5169 H         1 <1>         0.0959
     35 H35        -7.5516   -7.1495    3.2498 H         1 <1>         0.1175
     36 H36        -4.1554   -7.8314    3.4752 H         1 <1>         0.0852
     37 H37        -2.4239   -7.7848    3.0650 H         1 <1>         0.1212
     38 H38        -3.0524   -6.7747    4.3890 H         1 <1>         0.0996
@<TRIPOS>BOND
     1    1    2 1
     2    1   23 1
     3    1   24 1
     4    1   25 1
     5    2    3 1
     6    3    4 2
     7    3    5 1
     8    3    7 1
     9    5    6 1
    10    6   26 1
    11    6   27 1
    12    6   28 1
    13    7    8 1
    14    8    9 1
    15    8   10 1
    16    8   17 1
    17   10   16 ar
    18   10   11 ar
    19   11   12 ar
    20   11   29 1
    21   12   13 ar
    22   12   30 1
    23   13   14 1
    24   13   15 ar
    25   15   16 ar
    26   15   31 1
    27   16   32 1
    28   17   18 2
    29   17   19 1
    30   17   21 1
    31   19   20 1
    32   20   33 1
    33   20   34 1
    34   20   35 1
    35   21   22 1
    36   22   36 1
    37   22   37 1
    38   22   38 1
@<TRIPOS>Similarity
1.0242
@<TRIPOS>ShapeSim
0.6657
@<TRIPOS>PharmSim
0.3586
# END
# Name:		O=C1NC2=CC=C(S(=O)(O)=O)C=C2/C1=C3NC(C=CC=C4)=C4C/3=O
# Created and modified by SHAFTS on Sun Mar 21 16:57:45 2021

# 

@<TRIPOS>MOLECULE
O=C1NC2=CC=C(S(=O)(O)=O)C=C2/C1=C3NC(C=CC=C4)=C4C/3=O
   32    35     0
SMALL
USER_CHARGE


@<TRIPOS>ATOM
      1 O1         -1.8889   -5.5165    0.9839 O.2       1 <1>        -0.5300
      2 C2         -1.3023   -4.4518    1.0144 C.2       1 <1>         0.5600
      3 N3          0.0256   -4.2762    0.9029 N.am      1 <1>        -0.6600
      4 C4          0.3673   -2.9304    0.9793 C.ar      1 <1>         0.1400
      5 C5          1.5961   -2.2849    0.9154 C.ar      1 <1>        -0.1700
      6 C6          1.6635   -0.9093    1.0206 C.ar      1 <1>        -0.0300
      7 C7          0.5135   -0.1567    1.1903 C.ar      1 <1>        -0.6800
      8 S8          0.6212    1.5970    1.3216 S.o2      1 <1>         2.7100
      9 O9         -0.4864    2.0234    2.1628 O.co2     1 <1>        -0.5000
     10 O10         1.9109    1.8940    1.9253 O.co2     1 <1>        -0.5000
     11 O11         0.5159    2.1261   -0.0293 O.co2     1 <1>        -0.5000
     12 C12        -0.7170   -0.7785    1.2562 C.ar      1 <1>        -0.0100
     13 C13        -0.7962   -2.1650    1.1512 C.ar      1 <1>        -0.0800
     14 C14        -1.9243   -3.1180    1.1745 C.2       1 <1>        -0.2600
     15 C15        -3.2662   -2.8283    1.3167 C.2       1 <1>         0.1900
     16 N16        -4.2793   -3.7372    1.5157 N.pl3     1 <1>        -0.6000
     17 C17        -5.5054   -3.0956    1.6160 C.ar      1 <1>         0.1900
     18 C18        -6.7891   -3.5934    1.8148 C.ar      1 <1>        -0.1800
     19 C19        -7.8655   -2.7314    1.8778 C.ar      1 <1>        -0.0600
     20 C20        -7.6846   -1.3641    1.7450 C.ar      1 <1>        -0.2300
     21 C21        -6.4208   -0.8490    1.5472 C.ar      1 <1>         0.0000
     22 C22        -5.3247   -1.7098    1.4817 C.ar      1 <1>        -0.3100
     23 C23        -3.8808   -1.4799    1.2899 C.2       1 <1>         0.3900
     24 O24        -3.3158   -0.4132    1.1402 O.2       1 <1>        -0.4100
     25 H25         0.6642   -4.9966    0.7845 H         1 <1>         0.4000
     26 H26         2.5006   -2.8602    0.7837 H         1 <1>         0.1100
     27 H27         2.6228   -0.4157    0.9703 H         1 <1>         0.1300
     28 H28        -1.6144   -0.1925    1.3888 H         1 <1>         0.1700
     29 H29        -6.9440   -4.6570    1.9198 H         1 <1>         0.1100
     30 H30        -8.8586   -3.1267    2.0318 H         1 <1>         0.1100
     31 H31        -8.5351   -0.7004    1.7963 H         1 <1>         0.1100
     32 H32        -6.2800    0.2168    1.4434 H         1 <1>         0.1100
@<TRIPOS>BOND
     1    1    2 2
     2    2   14 1
     3    2    3 am
     4    3    4 1
     5    3   25 1
     6    4   13 ar
     7    4    5 ar
     8    5    6 ar
     9    5   26 1
    10    6    7 ar
    11    6   27 1
    12    7    8 1
    13    7   12 ar
    14    8    9 ar
    15    8   10 ar
    16    8   11 ar
    17   12   13 ar
    18   12   28 1
    19   13   14 1
    20   14   15 2
    21   15   23 1
    22   15   16 1
    23   16   17 1
    24   17   22 ar
    25   17   18 ar
    26   18   19 ar
    27   18   29 1
    28   19   20 ar
    29   19   30 1
    30   20   21 ar
    31   20   31 1
    32   21   22 ar
    33   21   32 1
    34   22   23 1
    35   23   24 2
@<TRIPOS>Similarity
1.0237
@<TRIPOS>ShapeSim
0.7457
@<TRIPOS>PharmSim
0.2780
# END
# Name:		O=C(N1)/C(C2=C1C=CC(S(=O)(O)=O)=C2)=C3NC(C=CC=C4)=C4C/3=O
# Created and modified by SHAFTS on Sun Mar 21 16:57:45 2021

# 

@<TRIPOS>MOLECULE
O=C(N1)/C(C2=C1C=CC(S(=O)(O)=O)=C2)=C3NC(C=CC=C4)=C4C/3=O
   32    35     0
SMALL
USER_CHARGE


@<TRIPOS>ATOM
      1 O1         -1.8889   -5.5165    0.9839 O.2       1 <1>        -0.5300
      2 C2         -1.3023   -4.4518    1.0144 C.2       1 <1>         0.5600
      3 N3          0.0256   -4.2762    0.9029 N.am      1 <1>        -0.6600
      4 C4          0.3673   -2.9304    0.9793 C.ar      1 <1>         0.1400
      5 C5          1.5961   -2.2849    0.9154 C.ar      1 <1>        -0.1700
      6 C6          1.6635   -0.9093    1.0206 C.ar      1 <1>        -0.0300
      7 C7          0.5135   -0.1567    1.1903 C.ar      1 <1>        -0.6800
      8 S8          0.6212    1.5970    1.3216 S.o2      1 <1>         2.7100
      9 O9         -0.4864    2.0234    2.1628 O.co2     1 <1>        -0.5000
     10 O10         1.9109    1.8940    1.9253 O.co2     1 <1>        -0.5000
     11 O11         0.5159    2.1261   -0.0293 O.co2     1 <1>        -0.5000
     12 C12        -0.7170   -0.7785    1.2562 C.ar      1 <1>        -0.0100
     13 C13        -0.7962   -2.1650    1.1512 C.ar      1 <1>        -0.0800
     14 C14        -1.9243   -3.1180    1.1745 C.2       1 <1>        -0.2600
     15 C15        -3.2662   -2.8283    1.3167 C.2       1 <1>         0.1900
     16 N16        -4.2793   -3.7372    1.5157 N.pl3     1 <1>        -0.6000
     17 C17        -5.5054   -3.0956    1.6160 C.ar      1 <1>         0.1900
     18 C18        -6.7891   -3.5934    1.8148 C.ar      1 <1>        -0.1800
     19 C19        -7.8655   -2.7314    1.8778 C.ar      1 <1>        -0.0600
     20 C20        -7.6846   -1.3641    1.7450 C.ar      1 <1>        -0.2300
     21 C21        -6.4208   -0.8490    1.5472 C.ar      1 <1>         0.0000
     22 C22        -5.3247   -1.7098    1.4817 C.ar      1 <1>        -0.3100
     23 C23        -3.8808   -1.4799    1.2899 C.2       1 <1>         0.3900
     24 O24        -3.3158   -0.4132    1.1402 O.2       1 <1>        -0.4100
     25 H25         0.6642   -4.9966    0.7845 H         1 <1>         0.4000
     26 H26         2.5006   -2.8602    0.7837 H         1 <1>         0.1100
     27 H27         2.6228   -0.4157    0.9703 H         1 <1>         0.1300
     28 H28        -1.6144   -0.1925    1.3888 H         1 <1>         0.1700
     29 H29        -6.9440   -4.6570    1.9198 H         1 <1>         0.1100
     30 H30        -8.8586   -3.1267    2.0318 H         1 <1>         0.1100
     31 H31        -8.5351   -0.7004    1.7963 H         1 <1>         0.1100
     32 H32        -6.2800    0.2168    1.4434 H         1 <1>         0.1100
@<TRIPOS>BOND
     1    1    2 2
     2    2   14 1
     3    2    3 am
     4    3    4 1
     5    3   25 1
     6    4   13 ar
     7    4    5 ar
     8    5    6 ar
     9    5   26 1
    10    6    7 ar
    11    6   27 1
    12    7    8 1
    13    7   12 ar
    14    8    9 ar
    15    8   10 ar
    16    8   11 ar
    17   12   13 ar
    18   12   28 1
    19   13   14 1
    20   14   15 2
    21   15   23 1
    22   15   16 1
    23   16   17 1
    24   17   22 ar
    25   17   18 ar
    26   18   19 ar
    27   18   29 1
    28   19   20 ar
    29   19   30 1
    30   20   21 ar
    31   20   31 1
    32   21   22 ar
    33   21   32 1
    34   22   23 1
    35   23   24 2
@<TRIPOS>Similarity
1.0237
@<TRIPOS>ShapeSim
0.7457
@<TRIPOS>PharmSim
0.2780
# END
# Name:		O=C(C1=CC=CC=C1N/2)C2=C3C(NC4=C\3C=C(S(=O)(O)=O)C=C4)=O
# Created and modified by SHAFTS on Sun Mar 21 16:57:45 2021

# 

@<TRIPOS>MOLECULE
O=C(C1=CC=CC=C1N/2)C2=C3C(NC4=C\3C=C(S(=O)(O)=O)C=C4)=O
   32    35     0
SMALL
USER_CHARGE


@<TRIPOS>ATOM
      1 O1         -1.8889   -5.5165    0.9839 O.2       1 <1>        -0.5300
      2 C2         -1.3023   -4.4518    1.0144 C.2       1 <1>         0.5600
      3 N3          0.0256   -4.2762    0.9029 N.am      1 <1>        -0.6600
      4 C4          0.3673   -2.9304    0.9793 C.ar      1 <1>         0.1400
      5 C5          1.5961   -2.2849    0.9154 C.ar      1 <1>        -0.1700
      6 C6          1.6635   -0.9093    1.0206 C.ar      1 <1>        -0.0300
      7 C7          0.5135   -0.1567    1.1903 C.ar      1 <1>        -0.6800
      8 S8          0.6212    1.5970    1.3216 S.o2      1 <1>         2.7100
      9 O9         -0.4864    2.0234    2.1628 O.co2     1 <1>        -0.5000
     10 O10         1.9109    1.8940    1.9253 O.co2     1 <1>        -0.5000
     11 O11         0.5159    2.1261   -0.0293 O.co2     1 <1>        -0.5000
     12 C12        -0.7170   -0.7785    1.2562 C.ar      1 <1>        -0.0100
     13 C13        -0.7962   -2.1650    1.1512 C.ar      1 <1>        -0.0800
     14 C14        -1.9243   -3.1180    1.1745 C.2       1 <1>        -0.2600
     15 C15        -3.2662   -2.8283    1.3167 C.2       1 <1>         0.1900
     16 N16        -4.2793   -3.7372    1.5157 N.pl3     1 <1>        -0.6000
     17 C17        -5.5054   -3.0956    1.6160 C.ar      1 <1>         0.1900
     18 C18        -6.7891   -3.5934    1.8148 C.ar      1 <1>        -0.1800
     19 C19        -7.8655   -2.7314    1.8778 C.ar      1 <1>        -0.0600
     20 C20        -7.6846   -1.3641    1.7450 C.ar      1 <1>        -0.2300
     21 C21        -6.4208   -0.8490    1.5472 C.ar      1 <1>         0.0000
     22 C22        -5.3247   -1.7098    1.4817 C.ar      1 <1>        -0.3100
     23 C23        -3.8808   -1.4799    1.2899 C.2       1 <1>         0.3900
     24 O24        -3.3158   -0.4132    1.1402 O.2       1 <1>        -0.4100
     25 H25         0.6642   -4.9966    0.7845 H         1 <1>         0.4000
     26 H26         2.5006   -2.8602    0.7837 H         1 <1>         0.1100
     27 H27         2.6228   -0.4157    0.9703 H         1 <1>         0.1300
     28 H28        -1.6144   -0.1925    1.3888 H         1 <1>         0.1700
     29 H29        -6.9440   -4.6570    1.9198 H         1 <1>         0.1100
     30 H30        -8.8586   -3.1267    2.0318 H         1 <1>         0.1100
     31 H31        -8.5351   -0.7004    1.7963 H         1 <1>         0.1100
     32 H32        -6.2800    0.2168    1.4434 H         1 <1>         0.1100
@<TRIPOS>BOND
     1    1    2 2
     2    2   14 1
     3    2    3 am
     4    3    4 1
     5    3   25 1
     6    4   13 ar
     7    4    5 ar
     8    5    6 ar
     9    5   26 1
    10    6    7 ar
    11    6   27 1
    12    7    8 1
    13    7   12 ar
    14    8    9 ar
    15    8   10 ar
    16    8   11 ar
    17   12   13 ar
    18   12   28 1
    19   13   14 1
    20   14   15 2
    21   15   23 1
    22   15   16 1
    23   16   17 1
    24   17   22 ar
    25   17   18 ar
    26   18   19 ar
    27   18   29 1
    28   19   20 ar
    29   19   30 1
    30   20   21 ar
    31   20   31 1
    32   21   22 ar
    33   21   32 1
    34   22   23 1
    35   23   24 2
@<TRIPOS>Similarity
1.0237
@<TRIPOS>ShapeSim
0.7457
@<TRIPOS>PharmSim
0.2780
# END
# Name:		CC1=C(C=C(C=N1)Cl)NCC2=CC=C(S2)C(=O)NC(CC3CCCC3)C(=O)NC4CC4
# Created and modified by SHAFTS on Sun Mar 21 16:57:45 2021

# 

@<TRIPOS>MOLECULE
CC1=C(C=C(C=N1)Cl)NCC2=CC=C(S2)C(=O)NC(CC3CCCC3)C(=O)NC4CC4
   60    63     0
SMALL
USER_CHARGE


@<TRIPOS>ATOM
      1 C1         -7.1381    1.7744    5.7229 C.3       1 <1>        -0.0046
      2 C2         -7.8734    2.5748    4.6790 C.ar      1 <1>        -0.0200
      3 N3         -8.3737    3.7528    4.9931 N.ar      1 <1>        -0.3840
      4 C4         -9.0247    4.4886    4.1134 C.ar      1 <1>        -0.0143
      5 C5         -9.2091    4.0472    2.8152 C.ar      1 <1>         0.0189
      6 Cl6       -10.0682    5.0268    1.6680 Cl        1 <1>        -0.1288
      7 C7         -8.6993    2.8132    2.4411 C.ar      1 <1>        -0.0341
      8 C8         -8.0122    2.0654    3.3937 C.ar      1 <1>        -0.0394
      9 N9         -7.4800    0.8162    3.0652 N.pl3     1 <1>        -0.4002
     10 C10        -7.6429    0.2840    1.7100 C.3       1 <1>        -0.0144
     11 C11        -6.9826   -1.0675    1.6182 C.2       1 <1>        -0.0216
     12 C12        -7.5959   -2.2299    1.8699 C.2       1 <1>        -0.0847
     13 C13        -6.8086   -3.3477    1.7266 C.2       1 <1>        -0.0610
     14 C14        -5.5272   -3.0613    1.3484 C.2       1 <1>         0.0864
     15 C15        -4.4676   -4.0479    1.1194 C.2       1 <1>         0.1171
     16 O16        -4.6984   -5.2339    1.2651 O.2       1 <1>        -0.4692
     17 N17        -3.2374   -3.6416    0.7475 N.am      1 <1>        -0.3105
     18 C18        -2.1496   -4.6154    0.6273 C.3       1 <1>         0.0804
     19 H19        -2.2831   -5.4026    1.3693 H         1 <1>         0.1676
     20 C20        -2.1659   -5.2279   -0.7748 C.3       1 <1>        -0.0177
     21 C21        -2.0910   -4.1126   -1.8194 C.3       1 <1>        -0.0683
     22 C22        -0.6747   -3.4861   -1.8429 C.3       1 <1>        -0.0713
     23 C23        -0.5938   -2.8774   -3.2650 C.3       1 <1>        -0.0768
     24 C24        -1.3214   -3.9037   -4.1576 C.3       1 <1>        -0.0769
     25 C25        -2.2733   -4.6891   -3.2387 C.3       1 <1>        -0.0739
     26 C26        -0.8299   -3.9255    0.8587 C.2       1 <1>         0.1025
     27 O27        -0.8010   -2.7374    1.1003 O.2       1 <1>        -0.4792
     28 N28         0.3181   -4.6288    0.7973 N.am      1 <1>        -0.3527
     29 C29         1.6010   -3.9580    1.0222 C.3       1 <1>        -0.0502
     30 C30         2.6251   -4.6709    1.9077 C.3       1 <1>        -0.0567
     31 C31         2.8468   -4.5879    0.3961 C.3       1 <1>        -0.0555
     32 S32        -5.3551   -1.3203    1.1728 S.3       1 <1>        -0.0695
     33 H33        -6.0796    2.0335    5.7004 H         1 <1>         0.0748
     34 H34        -7.5465    2.0001    6.7080 H         1 <1>         0.0748
     35 H35        -7.2563    0.7109    5.5154 H         1 <1>         0.0677
     36 H36        -9.4195    5.4489    4.4105 H         1 <1>         0.1973
     37 H37        -8.8285    2.4431    1.4348 H         1 <1>         0.1376
     38 H38        -7.0026    0.3012    3.7343 H         1 <1>         0.2915
     39 H39        -8.7046    0.1858    1.4835 H         1 <1>         0.1270
     40 H40        -7.1801    0.9638    0.9946 H         1 <1>         0.1198
     41 H41        -8.6336   -2.2858    2.1643 H         1 <1>         0.1351
     42 H42        -7.1671   -4.3522    1.8965 H         1 <1>         0.1581
     43 H43        -3.0724   -2.7045    0.5593 H         1 <1>         0.3122
     44 H44        -1.3098   -5.8926   -0.8908 H         1 <1>         0.0672
     45 H45        -3.0869   -5.7941   -0.9131 H         1 <1>         0.0744
     46 H46        -2.8440   -3.3508   -1.6174 H         1 <1>         0.0573
     47 H47        -0.5834   -2.7088   -1.0843 H         1 <1>         0.0522
     48 H48         0.0888   -4.2520   -1.7066 H         1 <1>         0.0451
     49 H49        -1.1035   -1.9145   -3.2972 H         1 <1>         0.0376
     50 H50         0.4455   -2.7705   -3.5756 H         1 <1>         0.0376
     51 H51        -1.8902   -3.3885   -4.9317 H         1 <1>         0.0361
     52 H52        -0.5989   -4.5809   -4.6132 H         1 <1>         0.0361
     53 H53        -2.0128   -5.7474   -3.2481 H         1 <1>         0.0462
     54 H54        -3.3041   -4.5550   -3.5665 H         1 <1>         0.0391
     55 H55         0.2950   -5.5791    0.6041 H         1 <1>         0.3000
     56 H56         1.5597   -2.8702    1.0757 H         1 <1>         0.1310
     57 H57         3.2579   -4.0520    2.5438 H         1 <1>         0.0597
     58 H58         2.3444   -5.6389    2.3227 H         1 <1>         0.0597
     59 H59         2.7119   -5.5012   -0.1833 H         1 <1>         0.0600
     60 H60         3.6253   -3.9142    0.0378 H         1 <1>         0.0671
@<TRIPOS>BOND
     1    1    2 1
     2    1   33 1
     3    1   34 1
     4    1   35 1
     5    2    8 ar
     6    2    3 ar
     7    3    4 ar
     8    4    5 ar
     9    4   36 1
    10    5    6 1
    11    5    7 ar
    12    7    8 ar
    13    7   37 1
    14    8    9 1
    15    9   10 1
    16    9   38 1
    17   10   11 1
    18   10   39 1
    19   10   40 1
    20   11   32 1
    21   11   12 2
    22   12   13 1
    23   12   41 1
    24   13   14 2
    25   13   42 1
    26   14   15 1
    27   14   32 1
    28   15   16 2
    29   15   17 am
    30   17   18 1
    31   17   43 1
    32   18   19 1
    33   18   20 1
    34   18   26 1
    35   20   21 1
    36   20   44 1
    37   20   45 1
    38   21   25 1
    39   21   22 1
    40   21   46 1
    41   22   23 1
    42   22   47 1
    43   22   48 1
    44   23   24 1
    45   23   49 1
    46   23   50 1
    47   24   25 1
    48   24   51 1
    49   24   52 1
    50   25   53 1
    51   25   54 1
    52   26   27 2
    53   26   28 am
    54   28   29 1
    55   28   55 1
    56   29   31 1
    57   29   30 1
    58   29   56 1
    59   30   31 1
    60   30   57 1
    61   30   58 1
    62   31   59 1
    63   31   60 1
@<TRIPOS>Similarity
1.0236
@<TRIPOS>ShapeSim
0.6109
@<TRIPOS>PharmSim
0.4127
# END
# Name:		ClC1=CN=C(N/N=C(C2=CC=CC=C2)/C3=NC=CC=C3)C=C1
# Created and modified by SHAFTS on Sun Mar 21 16:57:45 2021

# 

@<TRIPOS>MOLECULE
ClC1=CN=C(N/N=C(C2=CC=CC=C2)/C3=NC=CC=C3)C=C1
   35    37     0
SMALL
USER_CHARGE


@<TRIPOS>ATOM
      1 Cl1         3.2249   -2.4841    0.8904 Cl        1 <1>        -0.1243
      2 C2          1.6285   -3.1641    0.9441 C.ar      1 <1>         0.0285
      3 C3          1.4505   -4.5396    0.8903 C.ar      1 <1>        -0.0402
      4 C4          0.1608   -5.0411    0.9358 C.ar      1 <1>        -0.0064
      5 C5         -0.9091   -4.1518    1.0336 C.ar      1 <1>         0.0865
      6 N6         -2.1924   -4.6340    1.0801 N.2       1 <1>        -0.2125
      7 N7         -3.1474   -3.8480    1.1670 N.2       1 <1>        -0.2372
      8 C8         -4.5180   -4.3631    1.2167 C.3       1 <1>         0.1159
      9 C9         -5.4757   -3.2219    1.4440 C.ar      1 <1>        -0.0460
     10 C10        -5.2783   -2.0152    0.7993 C.ar      1 <1>        -0.0871
     11 C11        -6.1567   -0.9683    1.0079 C.ar      1 <1>        -0.1024
     12 C12        -7.2327   -1.1285    1.8609 C.ar      1 <1>        -0.1065
     13 C13        -7.4305   -2.3356    2.5049 C.ar      1 <1>        -0.1024
     14 C14        -6.5545   -3.3837    2.2929 C.ar      1 <1>        -0.0871
     15 C15        -4.8469   -5.0425   -0.0877 C.ar      1 <1>        -0.0038
     16 C16        -3.8637   -5.1906   -1.0474 C.ar      1 <1>        -0.0614
     17 C17        -4.1766   -5.8176   -2.2440 C.ar      1 <1>        -0.0903
     18 C18        -5.4722   -6.2740   -2.4309 C.ar      1 <1>        -0.0708
     19 C19        -6.4026   -6.0901   -1.4252 C.ar      1 <1>        -0.0389
     20 N20        -6.0681   -5.4936   -0.2978 N.ar      1 <1>        -0.3894
     21 N21        -0.6959   -2.8417    1.0824 N.ar      1 <1>        -0.3466
     22 C22         0.5193   -2.3387    1.0469 C.ar      1 <1>         0.0034
     23 H23         2.2988   -5.2036    0.8143 H         1 <1>         0.1616
     24 H24        -0.0144   -6.1061    0.8958 H         1 <1>         0.1702
     25 H25        -4.6072   -5.0804    2.0326 H         1 <1>         0.1829
     26 H26        -4.4377   -1.8900    0.1329 H         1 <1>         0.1221
     27 H27        -6.0022   -0.0253    0.5047 H         1 <1>         0.1134
     28 H28        -7.9186   -0.3104    2.0244 H         1 <1>         0.1143
     29 H29        -8.2710   -2.4606    3.1716 H         1 <1>         0.1134
     30 H30        -6.7091   -4.3268    2.7961 H         1 <1>         0.1221
     31 H31        -2.8644   -4.8224   -0.8679 H         1 <1>         0.1229
     32 H32        -3.4288   -5.9471   -3.0124 H         1 <1>         0.1373
     33 H33        -5.7512   -6.7666   -3.3505 H         1 <1>         0.1265
     34 H34        -7.4142   -6.4423   -1.5631 H         1 <1>         0.2026
     35 H35         0.6541   -1.2680    1.0891 H         1 <1>         0.2198
@<TRIPOS>BOND
     1    1    2 1
     2    2   22 ar
     3    2    3 ar
     4    3    4 ar
     5    3   23 1
     6    4    5 ar
     7    4   24 1
     8    5    6 1
     9    5   21 ar
    10    6    7 2
    11    7    8 1
    12    8    9 1
    13    8   15 1
    14    8   25 1
    15    9   14 ar
    16    9   10 ar
    17   10   11 ar
    18   10   26 1
    19   11   12 ar
    20   11   27 1
    21   12   13 ar
    22   12   28 1
    23   13   14 ar
    24   13   29 1
    25   14   30 1
    26   15   20 ar
    27   15   16 ar
    28   16   17 ar
    29   16   31 1
    30   17   18 ar
    31   17   32 1
    32   18   19 ar
    33   18   33 1
    34   19   20 ar
    35   19   34 1
    36   21   22 ar
    37   22   35 1
@<TRIPOS>Similarity
1.0222
@<TRIPOS>ShapeSim
0.7040
@<TRIPOS>PharmSim
0.3182
# END
# Name:		CC1=NC=C(C=C1)C2=NC3=C4C(=CN=C3C=C2)N(C(=O)N4C5CCN(CC5)C(=O)C(C)O)C
# Created and modified by SHAFTS on Sun Mar 21 16:57:45 2021

# 

@<TRIPOS>MOLECULE
CC1=NC=C(C=C1)C2=NC3=C4C(=CN=C3C=C2)N(C(=O)N4C5CCN(CC5)C(=O)C(C)O)C
   59    63     0
SMALL
USER_CHARGE


@<TRIPOS>ATOM
      1 C1          0.1339   -4.2062    0.9201 C.3       1 <1>        -0.0083
      2 C2         -1.3002   -3.7717    1.0812 C.ar      1 <1>        -0.0574
      3 C3         -1.5924   -2.4273    1.2200 C.ar      1 <1>        -0.0649
      4 C4         -2.9111   -2.0326    1.3679 C.ar      1 <1>        -0.0640
      5 C5         -3.9019   -3.0187    1.3706 C.ar      1 <1>        -0.0029
      6 C6         -5.3302   -2.6514    1.5251 C.ar      1 <1>        -0.0056
      7 C7         -6.3031   -3.6619    1.5301 C.ar      1 <1>        -0.0319
      8 C8         -7.6195   -3.3365    1.6714 C.ar      1 <1>        -0.0285
      9 C9         -7.9640   -1.9772    1.8098 C.ar      1 <1>         0.0229
     10 N10        -9.2401   -1.6047    1.9518 N.ar      1 <1>        -0.3640
     11 C11        -9.5854   -0.3458    2.0827 C.ar      1 <1>         0.0221
     12 C12        -8.6312    0.6731    2.0800 C.ar      1 <1>         0.0497
     13 C13        -7.2862    0.3531    1.9362 C.ar      1 <1>         0.0609
     14 C14        -6.9318   -1.0063    1.7965 C.ar      1 <1>         0.0529
     15 N15        -5.6603   -1.3806    1.6605 N.ar      1 <1>        -0.3627
     16 N16        -6.5780    1.5397    1.9690 N.am      1 <1>        -0.2633
     17 C17        -5.1238    1.6732    1.8518 C.3       1 <1>         0.0142
     18 C18        -4.7876    2.5340    0.6318 C.3       1 <1>        -0.0138
     19 C19        -3.2658    2.6428    0.4925 C.3       1 <1>        -0.0141
     20 N20        -2.7098    3.1443    1.7566 N.am      1 <1>        -0.3602
     21 C21        -1.9079    4.2273    1.7723 C.2       1 <1>         0.1025
     22 O22        -1.5603    4.7397    0.7294 O.2       1 <1>        -0.4846
     23 C23        -1.4430    4.8018    3.0857 C.3       1 <1>         0.0803
     24 H24        -1.0424    4.0032    3.7100 H         1 <1>         0.1627
     25 C25        -2.6236    5.4636    3.7993 C.3       1 <1>        -0.0192
     26 O26        -0.4248    5.7753    2.8460 O.3       1 <1>        -0.4593
     27 C27        -3.0452    2.4430    3.0034 C.3       1 <1>        -0.0137
     28 C28        -4.5693    2.3365    3.1147 C.3       1 <1>        -0.0146
     29 C29        -7.4522    2.5525    2.1270 C.2       1 <1>         0.1791
     30 O30        -7.1576    3.7312    2.1956 O.2       1 <1>        -0.4509
     31 N31        -8.7032    2.0577    2.1974 N.am      1 <1>        -0.2775
     32 C32        -9.9285    2.8423    2.3680 C.3       1 <1>         0.0111
     33 C33        -3.5252   -4.3529    1.2252 C.ar      1 <1>        -0.0159
     34 N34        -2.2573   -4.6796    1.0822 N.ar      1 <1>        -0.3971
     35 H35         0.3925   -4.2202   -0.1387 H         1 <1>         0.0747
     36 H36         0.7862   -3.5077    1.4442 H         1 <1>         0.0747
     37 H37         0.2601   -5.2048    1.3382 H         1 <1>         0.0747
     38 H38        -0.8003   -1.6931    1.2136 H         1 <1>         0.1268
     39 H39        -3.1678   -0.9894    1.4785 H         1 <1>         0.1501
     40 H40        -6.0100   -4.6957    1.4218 H         1 <1>         0.1465
     41 H41        -8.3806   -4.1027    1.6769 H         1 <1>         0.1750
     42 H42       -10.6293   -0.0926    2.1944 H         1 <1>         0.2371
     43 H43        -4.6769    0.6861    1.7338 H         1 <1>         0.1469
     44 H44        -5.2029    2.0730   -0.2643 H         1 <1>         0.0683
     45 H45        -5.2132    3.5292    0.7602 H         1 <1>         0.0755
     46 H46        -2.8478    1.6601    0.2738 H         1 <1>         0.1001
     47 H47        -3.0212    3.3340   -0.3140 H         1 <1>         0.1216
     48 H48        -3.3694    4.7077    4.0453 H         1 <1>         0.0456
     49 H49        -2.2737    5.9404    4.7148 H         1 <1>         0.0527
     50 H50        -3.0687    6.2141    3.1460 H         1 <1>         0.0456
     51 H51        -0.7115    6.5171    2.2957 H         1 <1>         0.3401
     52 H52        -2.6091    1.4442    2.9894 H         1 <1>         0.1053
     53 H53        -2.6550    3.0025    3.8537 H         1 <1>         0.1197
     54 H54        -4.9971    3.3335    3.2197 H         1 <1>         0.0751
     55 H55        -4.8293    1.7349    3.9856 H         1 <1>         0.0679
     56 H56        -9.6763    3.9008    2.4311 H         1 <1>         0.1233
     57 H57       -10.5880    2.6760    1.5162 H         1 <1>         0.1089
     58 H58       -10.4330    2.5338    3.2837 H         1 <1>         0.1089
     59 H59        -4.2801   -5.1252    1.2260 H         1 <1>         0.2110
@<TRIPOS>BOND
     1    1    2 1
     2    1   35 1
     3    1   36 1
     4    1   37 1
     5    2   34 ar
     6    2    3 ar
     7    3    4 ar
     8    3   38 1
     9    4    5 ar
    10    4   39 1
    11    5    6 1
    12    5   33 ar
    13    6   15 ar
    14    6    7 ar
    15    7    8 ar
    16    7   40 1
    17    8    9 ar
    18    8   41 1
    19    9   14 ar
    20    9   10 ar
    21   10   11 ar
    22   11   12 ar
    23   11   42 1
    24   12   31 1
    25   12   13 ar
    26   13   14 ar
    27   13   16 1
    28   14   15 ar
    29   16   17 1
    30   16   29 am
    31   17   28 1
    32   17   18 1
    33   17   43 1
    34   18   19 1
    35   18   44 1
    36   18   45 1
    37   19   20 1
    38   19   46 1
    39   19   47 1
    40   20   21 am
    41   20   27 1
    42   21   22 2
    43   21   23 1
    44   23   24 1
    45   23   25 1
    46   23   26 1
    47   25   48 1
    48   25   49 1
    49   25   50 1
    50   26   51 1
    51   27   28 1
    52   27   52 1
    53   27   53 1
    54   28   54 1
    55   28   55 1
    56   29   30 2
    57   29   31 am
    58   31   32 1
    59   32   56 1
    60   32   57 1
    61   32   58 1
    62   33   34 ar
    63   33   59 1
@<TRIPOS>Similarity
1.0216
@<TRIPOS>ShapeSim
0.5997
@<TRIPOS>PharmSim
0.4220
# END
# Name:		C1=CSC(=C1)C2=NC3=C(C(=C2)C(F)(F)F)C(=C(S3)C(=O)NC4=CC=C(C=C4)F)N
# Created and modified by SHAFTS on Sun Mar 21 16:57:45 2021

# 

@<TRIPOS>MOLECULE
C1=CSC(=C1)C2=NC3=C(C(=C2)C(F)(F)F)C(=C(S3)C(=O)NC4=CC=C(C=C4)F)N
   40    43     0
SMALL
USER_CHARGE


@<TRIPOS>ATOM
      1 N1         -7.3438   -4.4709    1.6428 N.pl3     1 <1>        -0.3896
      2 C2         -6.7663   -3.2085    1.6297 C.2       1 <1>        -0.0316
      3 C3         -5.4338   -3.0079    1.4654 C.2       1 <1>         0.1148
      4 C4         -4.4832   -4.0424    1.2908 C.2       1 <1>         0.1189
      5 O5         -4.8439   -5.2058    1.2811 O.2       1 <1>        -0.4753
      6 N6         -3.1791   -3.7399    1.1352 N.am      1 <1>        -0.3030
      7 C7         -2.2276   -4.7632    1.0596 C.ar      1 <1>        -0.0438
      8 C8         -0.9667   -4.5827    1.6131 C.ar      1 <1>        -0.0580
      9 C9         -0.0293   -5.5942    1.5378 C.ar      1 <1>        -0.0432
     10 C10        -0.3458   -6.7876    0.9108 C.ar      1 <1>         0.0605
     11 F11         0.5726   -7.7757    0.8382 F         1 <1>        -0.2750
     12 C12        -1.6024   -6.9697    0.3582 C.ar      1 <1>        -0.0398
     13 C13        -2.5448   -5.9630    0.4362 C.ar      1 <1>        -0.0522
     14 S14        -5.0460   -1.2994    1.4981 S.3       1 <1>        -0.0207
     15 C15        -6.7282   -0.8431    1.7401 C.ar      1 <1>         0.0741
     16 N16        -7.2750    0.3675    1.8706 N.ar      1 <1>        -0.3374
     17 C17        -8.5761    0.5330    2.0487 C.ar      1 <1>         0.0167
     18 C18        -9.1251    1.8950    2.1863 C.2       1 <1>         0.0234
     19 C19        -8.4030    3.0350    2.1416 C.2       1 <1>        -0.0750
     20 C20        -9.1391    4.1892    2.2945 C.2       1 <1>        -0.0935
     21 C21       -10.4533    4.0055    2.4634 C.2       1 <1>        -0.0389
     22 S22       -10.8229    2.2866    2.4265 S.3       1 <1>        -0.1040
     23 C23        -9.4383   -0.5698    2.1074 C.ar      1 <1>        -0.0035
     24 C24        -8.9288   -1.8266    1.9795 C.ar      1 <1>         0.0726
     25 C25        -9.8355   -3.0288    2.0389 C.3       1 <1>         0.3679
     26 F26       -11.1557   -2.6082    2.2316 F         1 <1>        -0.1771
     27 F27        -9.7436   -3.7419    0.8388 F         1 <1>        -0.1771
     28 F28        -9.4488   -3.8526    3.1015 F         1 <1>        -0.1771
     29 C29        -7.5351   -1.9868    1.7842 C.ar      1 <1>         0.0298
     30 H30        -8.3022   -4.5645    1.7591 H         1 <1>         0.2603
     31 H31        -6.7895   -5.2590    1.5316 H         1 <1>         0.2916
     32 H32        -2.9000   -2.8128    1.0755 H         1 <1>         0.3240
     33 H33        -0.7193   -3.6519    2.1017 H         1 <1>         0.1409
     34 H34         0.9512   -5.4542    1.9681 H         1 <1>         0.1363
     35 H35        -1.8471   -7.9010   -0.1307 H         1 <1>         0.1372
     36 H36        -3.5247   -6.1056    0.0054 H         1 <1>         0.1536
     37 H37        -7.3326    3.0414    1.9977 H         1 <1>         0.1484
     38 H38        -8.6883    5.1705    2.2794 H         1 <1>         0.1301
     39 H39       -11.1787    4.7942    2.5984 H         1 <1>         0.1506
     40 H40       -10.4985   -0.4245    2.2535 H         1 <1>         0.1642
@<TRIPOS>BOND
     1    1    2 1
     2    1   30 1
     3    1   31 1
     4    2   29 1
     5    2    3 2
     6    3    4 1
     7    3   14 1
     8    4    5 2
     9    4    6 am
    10    6    7 1
    11    6   32 1
    12    7   13 ar
    13    7    8 ar
    14    8    9 ar
    15    8   33 1
    16    9   10 ar
    17    9   34 1
    18   10   11 1
    19   10   12 ar
    20   12   13 ar
    21   12   35 1
    22   13   36 1
    23   14   15 1
    24   15   29 ar
    25   15   16 ar
    26   16   17 ar
    27   17   18 1
    28   17   23 ar
    29   18   22 1
    30   18   19 2
    31   19   20 1
    32   19   37 1
    33   20   21 2
    34   20   38 1
    35   21   22 1
    36   21   39 1
    37   23   24 ar
    38   23   40 1
    39   24   25 1
    40   24   29 ar
    41   25   26 1
    42   25   27 1
    43   25   28 1
@<TRIPOS>Similarity
1.0209
@<TRIPOS>ShapeSim
0.6164
@<TRIPOS>PharmSim
0.4045
# END
# Name:		OC1=C2C(O/C(C2=O)=C/C3=CC=C(S(=O)(N)=O)C=C3)=C(C4CCN(C)CC4)C(O)=C1
# Created and modified by SHAFTS on Sun Mar 21 16:57:45 2021

# 

@<TRIPOS>MOLECULE
OC1=C2C(O/C(C2=O)=C/C3=CC=C(S(=O)(N)=O)C=C3)=C(C4CCN(C)CC4)C(O)=C1
   53    56     0
SMALL
USER_CHARGE


@<TRIPOS>ATOM
      1 C1         -1.3868    4.8682    1.2088 C.3       1 <1>        -0.0914
      2 N2         -0.9442    3.4693    1.1387 N.4       1 <1>         0.4053
      3 H3          0.0604    3.4394    1.0496 H         1 <1>         0.1674
      4 C4         -1.5567    2.8217   -0.0275 C.3       1 <1>        -0.1012
      5 C5         -1.0361    1.3881   -0.1516 C.3       1 <1>        -0.0610
      6 C6         -1.3973    0.6081    1.1158 C.3       1 <1>        -0.0354
      7 C7         -0.8199   -0.7815    1.0340 C.ar      1 <1>        -0.0166
      8 C8          0.5514   -0.9537    0.9186 C.ar      1 <1>        -0.0017
      9 O9          1.3639    0.1329    0.8806 O.3       1 <1>        -0.4176
     10 C10         1.1022   -2.2273    0.8418 C.ar      1 <1>        -0.0054
     11 C11         0.2796   -3.3387    0.8805 C.ar      1 <1>         0.0107
     12 O12         0.8121   -4.5843    0.8064 O.3       1 <1>        -0.4121
     13 C13        -1.1067   -3.1708    0.9970 C.ar      1 <1>         0.0791
     14 C14        -1.6626   -1.8837    1.0803 C.ar      1 <1>         0.0519
     15 O15        -3.0068   -1.9742    1.1857 O.3       1 <1>        -0.3396
     16 C16        -3.4259   -3.2613    1.1809 C.2       1 <1>         0.1189
     17 C17        -4.7098   -3.6862    1.2709 C.2       1 <1>        -0.0065
     18 C18        -5.7905   -2.7166    1.5023 C.ar      1 <1>        -0.0580
     19 C19        -7.0978   -3.1612    1.7290 C.ar      1 <1>        -0.0700
     20 C20        -8.1053   -2.2455    1.9457 C.ar      1 <1>         0.0014
     21 C21        -7.8267   -0.8896    1.9390 C.ar      1 <1>         0.2880
     22 S22        -9.1217    0.2724    2.2165 S.o2      1 <1>        -0.0657
     23 N23        -9.1951    0.5444    3.8483 N.am      1 <1>        -0.1581
     24 O24        -8.6991    1.4932    1.6249 O.2       1 <1>        -0.0821
     25 O25       -10.3320   -0.3840    1.8643 O.2       1 <1>        -0.0821
     26 C26        -6.5360   -0.4417    1.7160 C.ar      1 <1>        -0.0019
     27 C27        -5.5162   -1.3445    1.5029 C.ar      1 <1>        -0.0724
     28 C28        -2.2322   -4.1160    1.0644 C.2       1 <1>         0.1532
     29 O29        -2.1873   -5.3334    1.0259 O.2       1 <1>        -0.4155
     30 C30        -0.8159    1.3334    2.3328 C.3       1 <1>        -0.0639
     31 C31        -1.3462    2.7685    2.3642 C.3       1 <1>        -0.1018
     32 H32        -2.4720    4.9016    1.3050 H         1 <1>         0.0765
     33 H33        -0.9304    5.3509    2.0729 H         1 <1>         0.0765
     34 H34        -1.0864    5.3903    0.3003 H         1 <1>         0.0765
     35 H35        -2.6398    2.8051    0.0939 H         1 <1>         0.0877
     36 H36        -1.3014    3.3798   -0.9282 H         1 <1>         0.0877
     37 H37        -1.4935    0.9084   -1.0169 H         1 <1>         0.0759
     38 H38         0.0471    1.4035   -0.2732 H         1 <1>         0.0759
     39 H39        -2.4815    0.5473    1.2098 H         1 <1>         0.0861
     40 H40         1.6707    0.4253    1.7499 H         1 <1>         0.3707
     41 H41         2.1715   -2.3492    0.7519 H         1 <1>         0.1531
     42 H42         1.0375   -4.9674    1.6652 H         1 <1>         0.3803
     43 H43        -4.9391   -4.7370    1.1725 H         1 <1>         0.1948
     44 H44        -7.3169   -4.2188    1.7338 H         1 <1>         0.1449
     45 H45        -9.1149   -2.5870    2.1208 H         1 <1>         0.1550
     46 H46        -9.4920    1.4047    4.1838 H         1 <1>         0.3207
     47 H47        -8.9411   -0.1567    4.4688 H         1 <1>         0.3207
     48 H48        -6.3268    0.6179    1.7127 H         1 <1>         0.1470
     49 H49        -4.5097   -0.9933    1.3291 H         1 <1>         0.1423
     50 H50        -1.1158    0.8146    3.2433 H         1 <1>         0.0753
     51 H51         0.2717    1.3476    2.2628 H         1 <1>         0.0610
     52 H52        -0.9349    3.2886    3.2293 H         1 <1>         0.0877
     53 H53        -2.4338    2.7519    2.4345 H         1 <1>         0.0877
@<TRIPOS>BOND
     1    1    2 1
     2    1   32 1
     3    1   33 1
     4    1   34 1
     5    2    3 1
     6    2   31 1
     7    2    4 1
     8    4    5 1
     9    4   35 1
    10    4   36 1
    11    5    6 1
    12    5   37 1
    13    5   38 1
    14    6    7 1
    15    6   30 1
    16    6   39 1
    17    7   14 ar
    18    7    8 ar
    19    8    9 1
    20    8   10 ar
    21    9   40 1
    22   10   11 ar
    23   10   41 1
    24   11   12 1
    25   11   13 ar
    26   12   42 1
    27   13   28 1
    28   13   14 ar
    29   14   15 1
    30   15   16 1
    31   16   17 2
    32   16   28 1
    33   17   18 1
    34   17   43 1
    35   18   27 ar
    36   18   19 ar
    37   19   20 ar
    38   19   44 1
    39   20   21 ar
    40   20   45 1
    41   21   22 1
    42   21   26 ar
    43   22   23 am
    44   22   24 2
    45   22   25 2
    46   23   46 1
    47   23   47 1
    48   26   27 ar
    49   26   48 1
    50   27   49 1
    51   28   29 2
    52   30   31 1
    53   30   50 1
    54   30   51 1
    55   31   52 1
    56   31   53 1
@<TRIPOS>Similarity
1.0202
@<TRIPOS>ShapeSim
0.7685
@<TRIPOS>PharmSim
0.2518
# END
# Name:		CN1C2=CC=CC=C2N=C1N=NC3=C(N=C4N3C=CC5=CC=CC=C54)C6=CC=C(C=C6)OC
# Created and modified by SHAFTS on Sun Mar 21 16:57:45 2021

# 

@<TRIPOS>MOLECULE
CN1C2=CC=CC=C2N=C1N=NC3=C(N=C4N3C=CC5=CC=CC=C54)C6=CC=C(C=C6)OC
   53    58     0
SMALL
USER_CHARGE


@<TRIPOS>ATOM
      1 C1          2.5012    1.3620    2.1039 C.3       1 <1>         0.0250
      2 O2          1.2569    1.2807    1.4060 O.3       1 <1>        -0.4151
      3 C3          0.7072    0.0465    1.2670 C.ar      1 <1>        -0.0100
      4 C4          1.3524   -1.0631    1.7984 C.ar      1 <1>        -0.0630
      5 C5          0.7977   -2.3169    1.6595 C.ar      1 <1>        -0.0690
      6 C6         -0.4143   -2.4712    0.9841 C.ar      1 <1>        -0.0076
      7 C7         -1.0133   -3.8156    0.8332 C.2       1 <1>         0.0653
      8 C8         -2.3734   -4.1313    0.9422 C.2       1 <1>         0.1369
      9 N9         -3.3766   -3.2836    1.2000 N.2       1 <1>        -0.1947
     10 N10        -4.5734   -3.7336    1.3710 N.2       1 <1>        -0.1929
     11 C11        -5.6027   -2.8724    1.5309 C.2       1 <1>         0.1263
     12 N12        -5.4906   -1.5648    1.6171 N.2       1 <1>        -0.3283
     13 C13        -6.7107   -1.0122    1.7721 C.ar      1 <1>        -0.0046
     14 C14        -7.1557    0.3074    1.9112 C.ar      1 <1>        -0.0579
     15 C15        -8.4896    0.5645    2.0549 C.ar      1 <1>        -0.0890
     16 C16        -9.4133   -0.4708    2.0648 C.ar      1 <1>        -0.0920
     17 C17        -8.9987   -1.7798    1.9293 C.ar      1 <1>        -0.0669
     18 C18        -7.6485   -2.0618    1.7821 C.ar      1 <1>        -0.0167
     19 N19        -6.9251   -3.2285    1.6222 N.pl3     1 <1>        -0.3132
     20 C20        -7.4670   -4.5883    1.5637 C.3       1 <1>         0.0067
     21 N21        -2.4726   -5.4966    0.7286 N.pl3     1 <1>        -0.2689
     22 C22        -3.5572   -6.3337    0.7188 C.2       1 <1>        -0.0157
     23 C23        -3.4503   -7.6509    0.4889 C.2       1 <1>        -0.0477
     24 C24        -2.1337   -8.2373    0.2362 C.ar      1 <1>        -0.0477
     25 C25        -1.9673   -9.6012   -0.0090 C.ar      1 <1>        -0.0781
     26 C26        -0.7134  -10.0960   -0.2395 C.ar      1 <1>        -0.0905
     27 C27         0.3958   -9.2603   -0.2323 C.ar      1 <1>        -0.0856
     28 C28         0.2632   -7.9200    0.0051 C.ar      1 <1>        -0.0583
     29 C29        -1.0037   -7.3867    0.2429 C.ar      1 <1>         0.0084
     30 C30        -1.2063   -5.9570    0.5028 C.2       1 <1>         0.0602
     31 N31        -0.3560   -4.9443    0.5632 N.2       1 <1>        -0.3233
     32 C32        -1.0600   -1.3537    0.4517 C.ar      1 <1>        -0.0561
     33 C33        -0.5016   -0.1024    0.5989 C.ar      1 <1>        -0.0461
     34 H34         2.3747    0.9819    3.1176 H         1 <1>         0.0906
     35 H35         3.2497    0.7650    1.5828 H         1 <1>         0.0906
     36 H36         2.8284    2.4010    2.1436 H         1 <1>         0.1196
     37 H37         2.2899   -0.9429    2.3208 H         1 <1>         0.1106
     38 H38         1.3002   -3.1792    2.0723 H         1 <1>         0.1421
     39 H39        -6.4455    1.1210    1.9054 H         1 <1>         0.1425
     40 H40        -8.8287    1.5842    2.1624 H         1 <1>         0.1211
     41 H41       -10.4644   -0.2504    2.1798 H         1 <1>         0.1277
     42 H42        -9.7224   -2.5813    1.9373 H         1 <1>         0.1240
     43 H43        -7.6124   -4.8770    0.5227 H         1 <1>         0.1077
     44 H44        -6.7692   -5.2783    2.0380 H         1 <1>         0.1149
     45 H45        -8.4227   -4.6213    2.0867 H         1 <1>         0.1149
     46 H46        -4.5362   -5.9168    0.9039 H         1 <1>         0.2048
     47 H47        -4.3314   -8.2755    0.4904 H         1 <1>         0.1551
     48 H48        -2.8223  -10.2610   -0.0164 H         1 <1>         0.1374
     49 H49        -0.5839  -11.1512   -0.4293 H         1 <1>         0.1287
     50 H50         1.3761   -9.6745   -0.4162 H         1 <1>         0.1332
     51 H51         1.1326   -7.2794    0.0079 H         1 <1>         0.1458
     52 H52        -1.9978   -1.4692   -0.0713 H         1 <1>         0.1528
     53 H53        -1.0005    0.7626    0.1877 H         1 <1>         0.1359
@<TRIPOS>BOND
     1    1    2 1
     2    1   34 1
     3    1   35 1
     4    1   36 1
     5    2    3 1
     6    3   33 ar
     7    3    4 ar
     8    4    5 ar
     9    4   37 1
    10    5    6 ar
    11    5   38 1
    12    6    7 1
    13    6   32 ar
    14    7   31 1
    15    7    8 2
    16    8    9 1
    17    8   21 1
    18    9   10 2
    19   10   11 1
    20   11   19 1
    21   11   12 2
    22   12   13 1
    23   13   18 ar
    24   13   14 ar
    25   14   15 ar
    26   14   39 1
    27   15   16 ar
    28   15   40 1
    29   16   17 ar
    30   16   41 1
    31   17   18 ar
    32   17   42 1
    33   18   19 1
    34   19   20 1
    35   20   43 1
    36   20   44 1
    37   20   45 1
    38   21   30 1
    39   21   22 1
    40   22   23 2
    41   22   46 1
    42   23   24 1
    43   23   47 1
    44   24   29 ar
    45   24   25 ar
    46   25   26 ar
    47   25   48 1
    48   26   27 ar
    49   26   49 1
    50   27   28 ar
    51   27   50 1
    52   28   29 ar
    53   28   51 1
    54   29   30 1
    55   30   31 2
    56   32   33 ar
    57   32   52 1
    58   33   53 1
@<TRIPOS>Similarity
1.0200
@<TRIPOS>ShapeSim
0.7019
@<TRIPOS>PharmSim
0.3181
# END
# Name:		NC1=NC(N2C(NC3=NNC=C3)=NC4=C2C=CC=C4)=NC(C)=N1
# Created and modified by SHAFTS on Sun Mar 21 16:57:45 2021

# 

@<TRIPOS>MOLECULE
NC1=NC(N2C(NC3=NNC=C3)=NC4=C2C=CC=C4)=NC(C)=N1
   36    39     0
SMALL
USER_CHARGE


@<TRIPOS>ATOM
      1 C1         -6.7654   -8.1559    1.2376 C.3       1 <1>         0.0437
      2 C2         -7.5677   -6.8908    1.4018 C.ar      1 <1>         0.0302
      3 N3         -8.8828   -6.9542    1.5111 N.ar      1 <1>        -0.3170
      4 C4         -9.5941   -5.8385    1.6566 C.ar      1 <1>         0.0607
      5 N5        -10.9677   -5.9048    1.7712 N.pl3     1 <1>        -0.3239
      6 N6         -8.9795   -4.6610    1.6918 N.ar      1 <1>        -0.2768
      7 C7         -7.6581   -4.6022    1.5816 C.ar      1 <1>         0.1254
      8 N8         -7.0117   -3.3736    1.6178 N.pl3     1 <1>        -0.1991
      9 C9         -7.6111   -2.1305    1.7689 C.ar      1 <1>         0.0219
     10 C10        -8.9220   -1.7085    1.9208 C.ar      1 <1>        -0.0586
     11 C11        -9.2001   -0.3626    2.0507 C.ar      1 <1>        -0.0917
     12 C12        -8.1753    0.5710    2.0300 C.ar      1 <1>        -0.0894
     13 C13        -6.8664    0.1688    1.8798 C.ar      1 <1>        -0.0539
     14 C14        -6.5688   -1.1892    1.7472 C.ar      1 <1>         0.0006
     15 N15        -5.4078   -1.8786    1.5877 N.2       1 <1>        -0.3231
     16 C16        -5.6614   -3.1609    1.5171 C.2       1 <1>         0.1221
     17 N17        -4.7128   -4.1490    1.3562 N.pl3     1 <1>        -0.2516
     18 C18        -3.3578   -3.8091    1.2545 C.2       1 <1>         0.0331
     19 N19        -2.3622   -4.6491    1.0943 N.2       1 <1>        -0.3334
     20 N20        -1.1729   -3.9112    1.0387 N.pl3     1 <1>        -0.3238
     21 C21        -1.4847   -2.6046    1.1701 C.2       1 <1>        -0.0458
     22 C22        -2.8274   -2.5096    1.3000 C.2       1 <1>        -0.0238
     23 N23        -6.9534   -5.7210    1.4415 N.ar      1 <1>        -0.3122
     24 H24        -6.4875   -8.5399    2.2191 H         1 <1>         0.1095
     25 H25        -7.3640   -8.9003    0.7124 H         1 <1>         0.1095
     26 H26        -5.8643   -7.9427    0.6625 H         1 <1>         0.1095
     27 H27       -11.4156   -6.7648    1.7457 H         1 <1>         0.3037
     28 H28       -11.4854   -5.0913    1.8773 H         1 <1>         0.3037
     29 H29        -9.7246   -2.4310    1.9373 H         1 <1>         0.1450
     30 H30       -10.2223   -0.0348    2.1688 H         1 <1>         0.1220
     31 H31        -8.4050    1.6213    2.1322 H         1 <1>         0.1243
     32 H32        -6.0729    0.9014    1.8643 H         1 <1>         0.1474
     33 H33        -4.9841   -5.0793    1.3136 H         1 <1>         0.3749
     34 H34        -0.2810   -4.2756    0.9256 H         1 <1>         0.3756
     35 H35        -0.7862   -1.7809    1.1685 H         1 <1>         0.2028
     36 H36        -3.3914   -1.5968    1.4232 H         1 <1>         0.1483
@<TRIPOS>BOND
     1    1    2 1
     2    1   24 1
     3    1   25 1
     4    1   26 1
     5    2   23 ar
     6    2    3 ar
     7    3    4 ar
     8    4    5 1
     9    4    6 ar
    10    5   27 1
    11    5   28 1
    12    6    7 ar
    13    7    8 1
    14    7   23 ar
    15    8   16 1
    16    8    9 1
    17    9   14 ar
    18    9   10 ar
    19   10   11 ar
    20   10   29 1
    21   11   12 ar
    22   11   30 1
    23   12   13 ar
    24   12   31 1
    25   13   14 ar
    26   13   32 1
    27   14   15 1
    28   15   16 2
    29   16   17 1
    30   17   18 1
    31   17   33 1
    32   18   22 1
    33   18   19 2
    34   19   20 1
    35   20   21 1
    36   20   34 1
    37   21   22 2
    38   21   35 1
    39   22   36 1
@<TRIPOS>Similarity
1.0200
@<TRIPOS>ShapeSim
0.6496
@<TRIPOS>PharmSim
0.3704
# END
# Name:		CC1=NC(=NC(=N1)N2C3=CC=CC=C3N=C2NC4=CC=NN4)N
# Created and modified by SHAFTS on Sun Mar 21 16:57:45 2021

# 

@<TRIPOS>MOLECULE
CC1=NC(=NC(=N1)N2C3=CC=CC=C3N=C2NC4=CC=NN4)N
   36    39     0
SMALL
USER_CHARGE


@<TRIPOS>ATOM
      1 C1         -6.7654   -8.1559    1.2376 C.3       1 <1>         0.0437
      2 C2         -7.5677   -6.8908    1.4018 C.ar      1 <1>         0.0302
      3 N3         -8.8828   -6.9542    1.5111 N.ar      1 <1>        -0.3170
      4 C4         -9.5941   -5.8385    1.6566 C.ar      1 <1>         0.0607
      5 N5        -10.9677   -5.9048    1.7712 N.pl3     1 <1>        -0.3239
      6 N6         -8.9795   -4.6610    1.6918 N.ar      1 <1>        -0.2768
      7 C7         -7.6581   -4.6022    1.5816 C.ar      1 <1>         0.1254
      8 N8         -7.0117   -3.3736    1.6178 N.pl3     1 <1>        -0.1991
      9 C9         -7.6111   -2.1305    1.7689 C.ar      1 <1>         0.0219
     10 C10        -8.9220   -1.7085    1.9208 C.ar      1 <1>        -0.0586
     11 C11        -9.2001   -0.3626    2.0507 C.ar      1 <1>        -0.0917
     12 C12        -8.1753    0.5710    2.0300 C.ar      1 <1>        -0.0894
     13 C13        -6.8664    0.1688    1.8798 C.ar      1 <1>        -0.0539
     14 C14        -6.5688   -1.1892    1.7472 C.ar      1 <1>         0.0006
     15 N15        -5.4078   -1.8786    1.5877 N.2       1 <1>        -0.3231
     16 C16        -5.6614   -3.1609    1.5171 C.2       1 <1>         0.1221
     17 N17        -4.7128   -4.1490    1.3562 N.pl3     1 <1>        -0.2516
     18 C18        -3.3578   -3.8091    1.2545 C.2       1 <1>         0.0331
     19 N19        -2.3622   -4.6491    1.0943 N.2       1 <1>        -0.3334
     20 N20        -1.1729   -3.9112    1.0387 N.pl3     1 <1>        -0.3238
     21 C21        -1.4847   -2.6046    1.1701 C.2       1 <1>        -0.0458
     22 C22        -2.8274   -2.5096    1.3000 C.2       1 <1>        -0.0238
     23 N23        -6.9534   -5.7210    1.4415 N.ar      1 <1>        -0.3122
     24 H24        -6.4875   -8.5399    2.2191 H         1 <1>         0.1095
     25 H25        -7.3640   -8.9003    0.7124 H         1 <1>         0.1095
     26 H26        -5.8643   -7.9427    0.6625 H         1 <1>         0.1095
     27 H27       -11.4156   -6.7648    1.7457 H         1 <1>         0.3037
     28 H28       -11.4854   -5.0913    1.8773 H         1 <1>         0.3037
     29 H29        -9.7246   -2.4310    1.9373 H         1 <1>         0.1450
     30 H30       -10.2223   -0.0348    2.1688 H         1 <1>         0.1220
     31 H31        -8.4050    1.6213    2.1322 H         1 <1>         0.1243
     32 H32        -6.0729    0.9014    1.8643 H         1 <1>         0.1474
     33 H33        -4.9841   -5.0793    1.3136 H         1 <1>         0.3749
     34 H34        -0.2810   -4.2756    0.9256 H         1 <1>         0.3756
     35 H35        -0.7862   -1.7809    1.1685 H         1 <1>         0.2028
     36 H36        -3.3914   -1.5968    1.4232 H         1 <1>         0.1483
@<TRIPOS>BOND
     1    1    2 1
     2    1   24 1
     3    1   25 1
     4    1   26 1
     5    2   23 ar
     6    2    3 ar
     7    3    4 ar
     8    4    5 1
     9    4    6 ar
    10    5   27 1
    11    5   28 1
    12    6    7 ar
    13    7    8 1
    14    7   23 ar
    15    8   16 1
    16    8    9 1
    17    9   14 ar
    18    9   10 ar
    19   10   11 ar
    20   10   29 1
    21   11   12 ar
    22   11   30 1
    23   12   13 ar
    24   12   31 1
    25   13   14 ar
    26   13   32 1
    27   14   15 1
    28   15   16 2
    29   16   17 1
    30   17   18 1
    31   17   33 1
    32   18   22 1
    33   18   19 2
    34   19   20 1
    35   20   21 1
    36   20   34 1
    37   21   22 2
    38   21   35 1
    39   22   36 1
@<TRIPOS>Similarity
1.0200
@<TRIPOS>ShapeSim
0.6496
@<TRIPOS>PharmSim
0.3704
# END
# Name:		S=C(N1CCC1)N/N=C(C)/C2=NC=CC=C2
# Created and modified by SHAFTS on Sun Mar 21 16:57:45 2021

# 

@<TRIPOS>MOLECULE
S=C(N1CCC1)N/N=C(C)/C2=NC=CC=C2
   30    31     0
SMALL
USER_CHARGE


@<TRIPOS>ATOM
      1 C1         -2.1018   -6.4169    0.9415 C.3       1 <1>         0.0138
      2 C2         -2.1864   -4.9168    1.0578 C.2       1 <1>         0.0339
      3 N3         -1.1054   -4.2001    1.0100 N.2       1 <1>        -0.3200
      4 N4          0.1403   -4.8212    0.8504 N.am      1 <1>        -0.2671
      5 C5          1.2629   -4.0770    0.8008 C.2       1 <1>        -0.0065
      6 S6          2.7851   -4.8360    0.6056 S.2       1 <1>        -0.3360
      7 N7          1.1872   -2.7354    0.9048 N.am      1 <1>        -0.3611
      8 C8          0.1137   -1.7460    1.0818 C.3       1 <1>        -0.0112
      9 C9          1.0086   -0.7267    0.3632 C.3       1 <1>        -0.0161
     10 C10         2.1424   -1.6172    0.8976 C.3       1 <1>        -0.0068
     11 C11        -3.4971   -4.2633    1.2257 C.ar      1 <1>         0.0248
     12 C12        -3.5703   -2.8724    1.3272 C.ar      1 <1>        -0.0434
     13 C13        -4.8080   -2.2746    1.4840 C.ar      1 <1>        -0.0826
     14 C14        -5.9341   -3.0846    1.5346 C.ar      1 <1>        -0.0655
     15 C15        -5.7900   -4.4562    1.4278 C.ar      1 <1>        -0.0306
     16 N16        -4.6015   -5.0021    1.2740 N.ar      1 <1>        -0.3746
     17 H17        -1.9873   -6.8524    1.9341 H         1 <1>         0.0775
     18 H18        -3.0132   -6.7977    0.4806 H         1 <1>         0.0847
     19 H19        -1.2435   -6.6858    0.3256 H         1 <1>         0.0632
     20 H20         0.1948   -5.7868    0.7755 H         1 <1>         0.3672
     21 H21        -0.7956   -1.9889    0.5320 H         1 <1>         0.1110
     22 H22        -0.0782   -1.4956    2.1252 H         1 <1>         0.1110
     23 H23         0.9072   -0.7297   -0.7221 H         1 <1>         0.0792
     24 H24         0.9856    0.2728    0.7975 H         1 <1>         0.0792
     25 H25         2.4880   -1.3306    1.8909 H         1 <1>         0.1232
     26 H26         2.9596   -1.7515    0.1889 H         1 <1>         0.1232
     27 H27        -2.6735   -2.2722    1.2842 H         1 <1>         0.1397
     28 H28        -4.8962   -1.2013    1.5656 H         1 <1>         0.1371
     29 H29        -6.9142   -2.6478    1.6568 H         1 <1>         0.1314
     30 H30        -6.6650   -5.0881    1.4674 H         1 <1>         0.2117
@<TRIPOS>BOND
     1    1    2 1
     2    1   17 1
     3    1   18 1
     4    1   19 1
     5    2    3 2
     6    2   11 1
     7    3    4 1
     8    4    5 am
     9    4   20 1
    10    5    6 2
    11    5    7 am
    12    7   10 1
    13    7    8 1
    14    8    9 1
    15    8   21 1
    16    8   22 1
    17    9   10 1
    18    9   23 1
    19    9   24 1
    20   10   25 1
    21   10   26 1
    22   11   16 ar
    23   11   12 ar
    24   12   13 ar
    25   12   27 1
    26   13   14 ar
    27   13   28 1
    28   14   15 ar
    29   14   29 1
    30   15   16 ar
    31   15   30 1
@<TRIPOS>Similarity
1.0186
@<TRIPOS>ShapeSim
0.7208
@<TRIPOS>PharmSim
0.2978
# END
# Name:		C1=CC(=CC=C1CCC(=O)C2=C(C=C(C=C2O)O)O)O
# Created and modified by SHAFTS on Sun Mar 21 16:57:45 2021

# 

@<TRIPOS>MOLECULE
C1=CC(=CC=C1CCC(=O)C2=C(C=C(C=C2O)O)O)O
   34    35     0
SMALL
USER_CHARGE


@<TRIPOS>ATOM
      1 O1         -1.9529   -4.7130    1.0517 O.2       1 <1>        -0.4584
      2 C2         -1.8846   -3.5037    1.1302 C.2       1 <1>         0.0848
      3 C3         -3.1393   -2.6881    1.3075 C.3       1 <1>         0.0373
      4 C4         -4.3511   -3.6208    1.3578 C.3       1 <1>        -0.0255
      5 C5         -5.6059   -2.8053    1.5351 C.ar      1 <1>        -0.1117
      6 C6         -6.0635   -2.5106    2.8061 C.ar      1 <1>        -0.0968
      7 C7         -7.2135   -1.7631    2.9713 C.ar      1 <1>        -0.0718
      8 C8         -7.9089   -1.3077    1.8606 C.ar      1 <1>        -0.0450
      9 O9         -9.0403   -0.5718    2.0205 O.3       1 <1>        -0.4425
     10 C10        -7.4473   -1.6044    0.5864 C.ar      1 <1>        -0.0718
     11 C11        -6.2942   -2.3481    0.4266 C.ar      1 <1>        -0.0968
     12 C12        -0.5850   -2.8390    1.0588 C.ar      1 <1>         0.0589
     13 C13        -0.5002   -1.4373    1.1551 C.ar      1 <1>         0.0010
     14 O14        -1.6250   -0.6970    1.3153 O.3       1 <1>        -0.4210
     15 C15         0.7334   -0.8181    1.0864 C.ar      1 <1>        -0.0209
     16 C16         1.8873   -1.5745    0.9228 C.ar      1 <1>        -0.0167
     17 O17         3.0938   -0.9574    0.8565 O.3       1 <1>        -0.4268
     18 C18         1.8140   -2.9586    0.8272 C.ar      1 <1>        -0.0188
     19 C19         0.5903   -3.5969    0.8990 C.ar      1 <1>         0.0054
     20 O20         0.5212   -4.9480    0.8055 O.3       1 <1>        -0.4154
     21 H21        -3.0770   -2.1231    2.2375 H         1 <1>         0.0859
     22 H22        -3.2460   -1.9987    0.4699 H         1 <1>         0.1003
     23 H23        -4.4134   -4.1860    0.4278 H         1 <1>         0.0691
     24 H24        -4.2444   -4.3102    2.1953 H         1 <1>         0.0691
     25 H25        -5.5217   -2.8654    3.6704 H         1 <1>         0.1252
     26 H26        -7.5710   -1.5338    3.9643 H         1 <1>         0.1249
     27 H27        -8.8858    0.3816    2.0687 H         1 <1>         0.3535
     28 H28        -7.9872   -1.2512   -0.2798 H         1 <1>         0.1249
     29 H29        -5.9343   -2.5790   -0.5652 H         1 <1>         0.1252
     30 H30        -1.8694   -0.5475    2.2388 H         1 <1>         0.3702
     31 H31         0.8006    0.2573    1.1598 H         1 <1>         0.1416
     32 H32         3.5251   -0.8437    1.7145 H         1 <1>         0.3670
     33 H33         2.7166   -3.5380    0.7005 H         1 <1>         0.1422
     34 H34         0.5865   -5.4050    1.6552 H         1 <1>         0.3734
@<TRIPOS>BOND
     1    1    2 2
     2    2    3 1
     3    2   12 1
     4    3    4 1
     5    3   21 1
     6    3   22 1
     7    4    5 1
     8    4   23 1
     9    4   24 1
    10    5   11 ar
    11    5    6 ar
    12    6    7 ar
    13    6   25 1
    14    7    8 ar
    15    7   26 1
    16    8    9 1
    17    8   10 ar
    18    9   27 1
    19   10   11 ar
    20   10   28 1
    21   11   29 1
    22   12   19 ar
    23   12   13 ar
    24   13   14 1
    25   13   15 ar
    26   14   30 1
    27   15   16 ar
    28   15   31 1
    29   16   17 1
    30   16   18 ar
    31   17   32 1
    32   18   19 ar
    33   18   33 1
    34   19   20 1
    35   20   34 1
@<TRIPOS>Similarity
1.0179
@<TRIPOS>ShapeSim
0.7814
@<TRIPOS>PharmSim
0.2365
# END
# Name:		C1COCCN1C2=CC(=O)C3=C(O2)C(=CC=C3)C4=CC=CC=C4
# Created and modified by SHAFTS on Sun Mar 21 16:57:45 2021

# 

@<TRIPOS>MOLECULE
C1COCCN1C2=CC(=O)C3=C(O2)C(=CC=C3)C4=CC=CC=C4
   40    43     0
SMALL
USER_CHARGE


@<TRIPOS>ATOM
      1 O1         -8.5955   -4.4676    1.6873 O.2       1 <1>        -0.4866
      2 C2         -7.6869   -3.6529    1.6645 C.2       1 <1>         0.0734
      3 C3         -6.3466   -4.0560    1.5091 C.2       1 <1>         0.0317
      4 C4         -5.3602   -3.1161    1.4881 C.2       1 <1>         0.0722
      5 N5         -4.0611   -3.5271    1.3355 N.pl3     1 <1>        -0.3685
      6 C6         -3.7324   -4.7185    0.5369 C.3       1 <1>         0.0020
      7 C7         -2.6319   -4.3426   -0.4618 C.3       1 <1>         0.0213
      8 O8         -1.5479   -3.7303    0.2406 O.3       1 <1>        -0.4576
      9 C9         -1.8917   -2.5075    0.8966 C.3       1 <1>         0.0212
     10 C10        -2.9539   -2.7861    1.9603 C.3       1 <1>         0.0019
     11 O11        -5.6113   -1.8057    1.6105 O.3       1 <1>        -0.3084
     12 C12        -6.8617   -1.3230    1.7636 C.ar      1 <1>         0.0667
     13 C13        -7.0905    0.0521    1.8883 C.ar      1 <1>        -0.0199
     14 C14        -5.9529    1.0031    1.8535 C.ar      1 <1>        -0.0707
     15 C15        -4.8363    0.7879    2.6593 C.ar      1 <1>        -0.0918
     16 C16        -3.7805    1.6758    2.6225 C.ar      1 <1>        -0.1020
     17 C17        -3.8291    2.7779    1.7879 C.ar      1 <1>        -0.1065
     18 C18        -4.9348    2.9966    0.9859 C.ar      1 <1>        -0.1017
     19 C19        -5.9941    2.1124    1.0106 C.ar      1 <1>        -0.0901
     20 C20        -8.3901    0.5224    2.0446 C.ar      1 <1>        -0.0689
     21 C21        -9.4569   -0.3585    2.0776 C.ar      1 <1>        -0.0833
     22 C22        -9.2458   -1.7163    1.9563 C.ar      1 <1>        -0.0672
     23 C23        -7.9507   -2.2045    1.7928 C.ar      1 <1>         0.0368
     24 H24        -6.1020   -5.1029    1.4075 H         1 <1>         0.1172
     25 H25        -3.3771   -5.5134    1.1927 H         1 <1>         0.1155
     26 H26        -4.6181   -5.0551   -0.0020 H         1 <1>         0.1227
     27 H27        -2.2771   -5.2405   -0.9677 H         1 <1>         0.1319
     28 H28        -3.0307   -3.6434   -1.1969 H         1 <1>         0.0957
     29 H29        -1.0044   -2.0851    1.3681 H         1 <1>         0.1337
     30 H30        -2.2879   -1.8016    0.1666 H         1 <1>         0.0975
     31 H31        -3.3232   -1.8443    2.3659 H         1 <1>         0.1209
     32 H32        -2.5228   -3.3873    2.7608 H         1 <1>         0.1137
     33 H33        -4.7975   -0.0721    3.3115 H         1 <1>         0.1200
     34 H34        -2.9149    1.5102    3.2467 H         1 <1>         0.1206
     35 H35        -3.0007    3.4704    1.7625 H         1 <1>         0.1142
     36 H36        -4.9673    3.8587    0.3363 H         1 <1>         0.1206
     37 H37        -6.8568    2.2841    0.3841 H         1 <1>         0.1275
     38 H38        -8.5679    1.5832    2.1413 H         1 <1>         0.1475
     39 H39       -10.4613    0.0196    2.1995 H         1 <1>         0.1286
     40 H40       -10.0823   -2.3988    1.9830 H         1 <1>         0.1482
@<TRIPOS>BOND
     1    1    2 2
     2    2   23 1
     3    2    3 1
     4    3    4 2
     5    3   24 1
     6    4    5 1
     7    4   11 1
     8    5   10 1
     9    5    6 1
    10    6    7 1
    11    6   25 1
    12    6   26 1
    13    7    8 1
    14    7   27 1
    15    7   28 1
    16    8    9 1
    17    9   10 1
    18    9   29 1
    19    9   30 1
    20   10   31 1
    21   10   32 1
    22   11   12 1
    23   12   23 ar
    24   12   13 ar
    25   13   14 1
    26   13   20 ar
    27   14   19 ar
    28   14   15 ar
    29   15   16 ar
    30   15   33 1
    31   16   17 ar
    32   16   34 1
    33   17   18 ar
    34   17   35 1
    35   18   19 ar
    36   18   36 1
    37   19   37 1
    38   20   21 ar
    39   20   38 1
    40   21   22 ar
    41   21   39 1
    42   22   23 ar
    43   22   40 1
@<TRIPOS>Similarity
1.0168
@<TRIPOS>ShapeSim
0.6188
@<TRIPOS>PharmSim
0.3981
# END
# Name:		C1COCCN1C2=CC(=O)C3=C(O2)C(=CC=C3)C4=CC=CC=C4
# Created and modified by SHAFTS on Sun Mar 21 16:57:45 2021

# 

@<TRIPOS>MOLECULE
C1COCCN1C2=CC(=O)C3=C(O2)C(=CC=C3)C4=CC=CC=C4
   40    43     0
SMALL
USER_CHARGE


@<TRIPOS>ATOM
      1 O1         -8.5955   -4.4676    1.6873 O.2       1 <1>        -0.4866
      2 C2         -7.6869   -3.6529    1.6645 C.2       1 <1>         0.0734
      3 C3         -6.3466   -4.0560    1.5091 C.2       1 <1>         0.0317
      4 C4         -5.3602   -3.1161    1.4881 C.2       1 <1>         0.0722
      5 N5         -4.0611   -3.5271    1.3355 N.pl3     1 <1>        -0.3685
      6 C6         -3.7324   -4.7185    0.5369 C.3       1 <1>         0.0020
      7 C7         -2.6319   -4.3426   -0.4618 C.3       1 <1>         0.0213
      8 O8         -1.5479   -3.7303    0.2406 O.3       1 <1>        -0.4576
      9 C9         -1.8917   -2.5075    0.8966 C.3       1 <1>         0.0212
     10 C10        -2.9539   -2.7861    1.9603 C.3       1 <1>         0.0019
     11 O11        -5.6113   -1.8057    1.6105 O.3       1 <1>        -0.3084
     12 C12        -6.8617   -1.3230    1.7636 C.ar      1 <1>         0.0667
     13 C13        -7.0905    0.0521    1.8883 C.ar      1 <1>        -0.0199
     14 C14        -5.9529    1.0031    1.8535 C.ar      1 <1>        -0.0707
     15 C15        -4.8363    0.7879    2.6593 C.ar      1 <1>        -0.0918
     16 C16        -3.7805    1.6758    2.6225 C.ar      1 <1>        -0.1020
     17 C17        -3.8291    2.7779    1.7879 C.ar      1 <1>        -0.1065
     18 C18        -4.9348    2.9966    0.9859 C.ar      1 <1>        -0.1017
     19 C19        -5.9941    2.1124    1.0106 C.ar      1 <1>        -0.0901
     20 C20        -8.3901    0.5224    2.0446 C.ar      1 <1>        -0.0689
     21 C21        -9.4569   -0.3585    2.0776 C.ar      1 <1>        -0.0833
     22 C22        -9.2458   -1.7163    1.9563 C.ar      1 <1>        -0.0672
     23 C23        -7.9507   -2.2045    1.7928 C.ar      1 <1>         0.0368
     24 H24        -6.1020   -5.1029    1.4075 H         1 <1>         0.1172
     25 H25        -3.3771   -5.5134    1.1927 H         1 <1>         0.1155
     26 H26        -4.6181   -5.0551   -0.0020 H         1 <1>         0.1227
     27 H27        -2.2771   -5.2405   -0.9677 H         1 <1>         0.1319
     28 H28        -3.0307   -3.6434   -1.1969 H         1 <1>         0.0957
     29 H29        -1.0044   -2.0851    1.3681 H         1 <1>         0.1337
     30 H30        -2.2879   -1.8016    0.1666 H         1 <1>         0.0975
     31 H31        -3.3232   -1.8443    2.3659 H         1 <1>         0.1209
     32 H32        -2.5228   -3.3873    2.7608 H         1 <1>         0.1137
     33 H33        -4.7975   -0.0721    3.3115 H         1 <1>         0.1200
     34 H34        -2.9149    1.5102    3.2467 H         1 <1>         0.1206
     35 H35        -3.0007    3.4704    1.7625 H         1 <1>         0.1142
     36 H36        -4.9673    3.8587    0.3363 H         1 <1>         0.1206
     37 H37        -6.8568    2.2841    0.3841 H         1 <1>         0.1275
     38 H38        -8.5679    1.5832    2.1413 H         1 <1>         0.1475
     39 H39       -10.4613    0.0196    2.1995 H         1 <1>         0.1286
     40 H40       -10.0823   -2.3988    1.9830 H         1 <1>         0.1482
@<TRIPOS>BOND
     1    1    2 2
     2    2   23 1
     3    2    3 1
     4    3    4 2
     5    3   24 1
     6    4    5 1
     7    4   11 1
     8    5   10 1
     9    5    6 1
    10    6    7 1
    11    6   25 1
    12    6   26 1
    13    7    8 1
    14    7   27 1
    15    7   28 1
    16    8    9 1
    17    9   10 1
    18    9   29 1
    19    9   30 1
    20   10   31 1
    21   10   32 1
    22   11   12 1
    23   12   23 ar
    24   12   13 ar
    25   13   14 1
    26   13   20 ar
    27   14   19 ar
    28   14   15 ar
    29   15   16 ar
    30   15   33 1
    31   16   17 ar
    32   16   34 1
    33   17   18 ar
    34   17   35 1
    35   18   19 ar
    36   18   36 1
    37   19   37 1
    38   20   21 ar
    39   20   38 1
    40   21   22 ar
    41   21   39 1
    42   22   23 ar
    43   22   40 1
@<TRIPOS>Similarity
1.0168
@<TRIPOS>ShapeSim
0.6188
@<TRIPOS>PharmSim
0.3981
# END
# Name:		C1COCCN1C2=CC(=O)C3=C(O2)C(=CC=C3)C4=CC=CC=C4
# Created and modified by SHAFTS on Sun Mar 21 16:57:45 2021

# 

@<TRIPOS>MOLECULE
C1COCCN1C2=CC(=O)C3=C(O2)C(=CC=C3)C4=CC=CC=C4
   40    43     0
SMALL
USER_CHARGE


@<TRIPOS>ATOM
      1 O1         -8.5955   -4.4676    1.6873 O.2       1 <1>        -0.4866
      2 C2         -7.6869   -3.6529    1.6645 C.2       1 <1>         0.0734
      3 C3         -6.3466   -4.0560    1.5091 C.2       1 <1>         0.0317
      4 C4         -5.3602   -3.1161    1.4881 C.2       1 <1>         0.0722
      5 N5         -4.0611   -3.5271    1.3355 N.pl3     1 <1>        -0.3685
      6 C6         -3.7324   -4.7185    0.5369 C.3       1 <1>         0.0020
      7 C7         -2.6319   -4.3426   -0.4618 C.3       1 <1>         0.0213
      8 O8         -1.5479   -3.7303    0.2406 O.3       1 <1>        -0.4576
      9 C9         -1.8917   -2.5075    0.8966 C.3       1 <1>         0.0212
     10 C10        -2.9539   -2.7861    1.9603 C.3       1 <1>         0.0019
     11 O11        -5.6113   -1.8057    1.6105 O.3       1 <1>        -0.3084
     12 C12        -6.8617   -1.3230    1.7636 C.ar      1 <1>         0.0667
     13 C13        -7.0905    0.0521    1.8883 C.ar      1 <1>        -0.0199
     14 C14        -5.9529    1.0031    1.8535 C.ar      1 <1>        -0.0707
     15 C15        -4.8363    0.7879    2.6593 C.ar      1 <1>        -0.0918
     16 C16        -3.7805    1.6758    2.6225 C.ar      1 <1>        -0.1020
     17 C17        -3.8291    2.7779    1.7879 C.ar      1 <1>        -0.1065
     18 C18        -4.9348    2.9966    0.9859 C.ar      1 <1>        -0.1017
     19 C19        -5.9941    2.1124    1.0106 C.ar      1 <1>        -0.0901
     20 C20        -8.3901    0.5224    2.0446 C.ar      1 <1>        -0.0689
     21 C21        -9.4569   -0.3585    2.0776 C.ar      1 <1>        -0.0833
     22 C22        -9.2458   -1.7163    1.9563 C.ar      1 <1>        -0.0672
     23 C23        -7.9507   -2.2045    1.7928 C.ar      1 <1>         0.0368
     24 H24        -6.1020   -5.1029    1.4075 H         1 <1>         0.1172
     25 H25        -3.3771   -5.5134    1.1927 H         1 <1>         0.1155
     26 H26        -4.6181   -5.0551   -0.0020 H         1 <1>         0.1227
     27 H27        -2.2771   -5.2405   -0.9677 H         1 <1>         0.1319
     28 H28        -3.0307   -3.6434   -1.1969 H         1 <1>         0.0957
     29 H29        -1.0044   -2.0851    1.3681 H         1 <1>         0.1337
     30 H30        -2.2879   -1.8016    0.1666 H         1 <1>         0.0975
     31 H31        -3.3232   -1.8443    2.3659 H         1 <1>         0.1209
     32 H32        -2.5228   -3.3873    2.7608 H         1 <1>         0.1137
     33 H33        -4.7975   -0.0721    3.3115 H         1 <1>         0.1200
     34 H34        -2.9149    1.5102    3.2467 H         1 <1>         0.1206
     35 H35        -3.0007    3.4704    1.7625 H         1 <1>         0.1142
     36 H36        -4.9673    3.8587    0.3363 H         1 <1>         0.1206
     37 H37        -6.8568    2.2841    0.3841 H         1 <1>         0.1275
     38 H38        -8.5679    1.5832    2.1413 H         1 <1>         0.1475
     39 H39       -10.4613    0.0196    2.1995 H         1 <1>         0.1286
     40 H40       -10.0823   -2.3988    1.9830 H         1 <1>         0.1482
@<TRIPOS>BOND
     1    1    2 2
     2    2   23 1
     3    2    3 1
     4    3    4 2
     5    3   24 1
     6    4    5 1
     7    4   11 1
     8    5   10 1
     9    5    6 1
    10    6    7 1
    11    6   25 1
    12    6   26 1
    13    7    8 1
    14    7   27 1
    15    7   28 1
    16    8    9 1
    17    9   10 1
    18    9   29 1
    19    9   30 1
    20   10   31 1
    21   10   32 1
    22   11   12 1
    23   12   23 ar
    24   12   13 ar
    25   13   14 1
    26   13   20 ar
    27   14   19 ar
    28   14   15 ar
    29   15   16 ar
    30   15   33 1
    31   16   17 ar
    32   16   34 1
    33   17   18 ar
    34   17   35 1
    35   18   19 ar
    36   18   36 1
    37   19   37 1
    38   20   21 ar
    39   20   38 1
    40   21   22 ar
    41   21   39 1
    42   22   23 ar
    43   22   40 1
@<TRIPOS>Similarity
1.0168
@<TRIPOS>ShapeSim
0.6188
@<TRIPOS>PharmSim
0.3981
# END
# Name:		C1COCCN1C2=CC(=O)C3=C(O2)C(=CC=C3)C4=CC=CC=C4
# Created and modified by SHAFTS on Sun Mar 21 16:57:45 2021

# 

@<TRIPOS>MOLECULE
C1COCCN1C2=CC(=O)C3=C(O2)C(=CC=C3)C4=CC=CC=C4
   40    43     0
SMALL
USER_CHARGE


@<TRIPOS>ATOM
      1 O1         -8.5955   -4.4676    1.6873 O.2       1 <1>        -0.4866
      2 C2         -7.6869   -3.6529    1.6645 C.2       1 <1>         0.0734
      3 C3         -6.3466   -4.0560    1.5091 C.2       1 <1>         0.0317
      4 C4         -5.3602   -3.1161    1.4881 C.2       1 <1>         0.0722
      5 N5         -4.0611   -3.5271    1.3355 N.pl3     1 <1>        -0.3685
      6 C6         -3.7324   -4.7185    0.5369 C.3       1 <1>         0.0020
      7 C7         -2.6319   -4.3426   -0.4618 C.3       1 <1>         0.0213
      8 O8         -1.5479   -3.7303    0.2406 O.3       1 <1>        -0.4576
      9 C9         -1.8917   -2.5075    0.8966 C.3       1 <1>         0.0212
     10 C10        -2.9539   -2.7861    1.9603 C.3       1 <1>         0.0019
     11 O11        -5.6113   -1.8057    1.6105 O.3       1 <1>        -0.3084
     12 C12        -6.8617   -1.3230    1.7636 C.ar      1 <1>         0.0667
     13 C13        -7.0905    0.0521    1.8883 C.ar      1 <1>        -0.0199
     14 C14        -5.9529    1.0031    1.8535 C.ar      1 <1>        -0.0707
     15 C15        -4.8363    0.7879    2.6593 C.ar      1 <1>        -0.0918
     16 C16        -3.7805    1.6758    2.6225 C.ar      1 <1>        -0.1020
     17 C17        -3.8291    2.7779    1.7879 C.ar      1 <1>        -0.1065
     18 C18        -4.9348    2.9966    0.9859 C.ar      1 <1>        -0.1017
     19 C19        -5.9941    2.1124    1.0106 C.ar      1 <1>        -0.0901
     20 C20        -8.3901    0.5224    2.0446 C.ar      1 <1>        -0.0689
     21 C21        -9.4569   -0.3585    2.0776 C.ar      1 <1>        -0.0833
     22 C22        -9.2458   -1.7163    1.9563 C.ar      1 <1>        -0.0672
     23 C23        -7.9507   -2.2045    1.7928 C.ar      1 <1>         0.0368
     24 H24        -6.1020   -5.1029    1.4075 H         1 <1>         0.1172
     25 H25        -3.3771   -5.5134    1.1927 H         1 <1>         0.1155
     26 H26        -4.6181   -5.0551   -0.0020 H         1 <1>         0.1227
     27 H27        -2.2771   -5.2405   -0.9677 H         1 <1>         0.1319
     28 H28        -3.0307   -3.6434   -1.1969 H         1 <1>         0.0957
     29 H29        -1.0044   -2.0851    1.3681 H         1 <1>         0.1337
     30 H30        -2.2879   -1.8016    0.1666 H         1 <1>         0.0975
     31 H31        -3.3232   -1.8443    2.3659 H         1 <1>         0.1209
     32 H32        -2.5228   -3.3873    2.7608 H         1 <1>         0.1137
     33 H33        -4.7975   -0.0721    3.3115 H         1 <1>         0.1200
     34 H34        -2.9149    1.5102    3.2467 H         1 <1>         0.1206
     35 H35        -3.0007    3.4704    1.7625 H         1 <1>         0.1142
     36 H36        -4.9673    3.8587    0.3363 H         1 <1>         0.1206
     37 H37        -6.8568    2.2841    0.3841 H         1 <1>         0.1275
     38 H38        -8.5679    1.5832    2.1413 H         1 <1>         0.1475
     39 H39       -10.4613    0.0196    2.1995 H         1 <1>         0.1286
     40 H40       -10.0823   -2.3988    1.9830 H         1 <1>         0.1482
@<TRIPOS>BOND
     1    1    2 2
     2    2   23 1
     3    2    3 1
     4    3    4 2
     5    3   24 1
     6    4    5 1
     7    4   11 1
     8    5   10 1
     9    5    6 1
    10    6    7 1
    11    6   25 1
    12    6   26 1
    13    7    8 1
    14    7   27 1
    15    7   28 1
    16    8    9 1
    17    9   10 1
    18    9   29 1
    19    9   30 1
    20   10   31 1
    21   10   32 1
    22   11   12 1
    23   12   23 ar
    24   12   13 ar
    25   13   14 1
    26   13   20 ar
    27   14   19 ar
    28   14   15 ar
    29   15   16 ar
    30   15   33 1
    31   16   17 ar
    32   16   34 1
    33   17   18 ar
    34   17   35 1
    35   18   19 ar
    36   18   36 1
    37   19   37 1
    38   20   21 ar
    39   20   38 1
    40   21   22 ar
    41   21   39 1
    42   22   23 ar
    43   22   40 1
@<TRIPOS>Similarity
1.0168
@<TRIPOS>ShapeSim
0.6188
@<TRIPOS>PharmSim
0.3981
# END
# Name:		O=C1C2=CC=CC(C3=CC=CC=C3)=C2OC(N4CCOCC4)=C1
# Created and modified by SHAFTS on Sun Mar 21 16:57:45 2021

# 

@<TRIPOS>MOLECULE
O=C1C2=CC=CC(C3=CC=CC=C3)=C2OC(N4CCOCC4)=C1
   40    43     0
SMALL
USER_CHARGE


@<TRIPOS>ATOM
      1 O1         -8.5955   -4.4676    1.6873 O.2       1 <1>        -0.4866
      2 C2         -7.6869   -3.6529    1.6645 C.2       1 <1>         0.0734
      3 C3         -6.3466   -4.0560    1.5091 C.2       1 <1>         0.0317
      4 C4         -5.3602   -3.1161    1.4881 C.2       1 <1>         0.0722
      5 N5         -4.0611   -3.5271    1.3355 N.pl3     1 <1>        -0.3685
      6 C6         -3.7324   -4.7185    0.5369 C.3       1 <1>         0.0020
      7 C7         -2.6319   -4.3426   -0.4618 C.3       1 <1>         0.0213
      8 O8         -1.5479   -3.7303    0.2406 O.3       1 <1>        -0.4576
      9 C9         -1.8917   -2.5075    0.8966 C.3       1 <1>         0.0212
     10 C10        -2.9539   -2.7861    1.9603 C.3       1 <1>         0.0019
     11 O11        -5.6113   -1.8057    1.6105 O.3       1 <1>        -0.3084
     12 C12        -6.8617   -1.3230    1.7636 C.ar      1 <1>         0.0667
     13 C13        -7.0905    0.0521    1.8883 C.ar      1 <1>        -0.0199
     14 C14        -5.9529    1.0031    1.8535 C.ar      1 <1>        -0.0707
     15 C15        -4.8363    0.7879    2.6593 C.ar      1 <1>        -0.0918
     16 C16        -3.7805    1.6758    2.6225 C.ar      1 <1>        -0.1020
     17 C17        -3.8291    2.7779    1.7879 C.ar      1 <1>        -0.1065
     18 C18        -4.9348    2.9966    0.9859 C.ar      1 <1>        -0.1017
     19 C19        -5.9941    2.1124    1.0106 C.ar      1 <1>        -0.0901
     20 C20        -8.3901    0.5224    2.0446 C.ar      1 <1>        -0.0689
     21 C21        -9.4569   -0.3585    2.0776 C.ar      1 <1>        -0.0833
     22 C22        -9.2458   -1.7163    1.9563 C.ar      1 <1>        -0.0672
     23 C23        -7.9507   -2.2045    1.7928 C.ar      1 <1>         0.0368
     24 H24        -6.1020   -5.1029    1.4075 H         1 <1>         0.1172
     25 H25        -3.3771   -5.5134    1.1927 H         1 <1>         0.1155
     26 H26        -4.6181   -5.0551   -0.0020 H         1 <1>         0.1227
     27 H27        -2.2771   -5.2405   -0.9677 H         1 <1>         0.1319
     28 H28        -3.0307   -3.6434   -1.1969 H         1 <1>         0.0957
     29 H29        -1.0044   -2.0851    1.3681 H         1 <1>         0.1337
     30 H30        -2.2879   -1.8016    0.1666 H         1 <1>         0.0975
     31 H31        -3.3232   -1.8443    2.3659 H         1 <1>         0.1209
     32 H32        -2.5228   -3.3873    2.7608 H         1 <1>         0.1137
     33 H33        -4.7975   -0.0721    3.3115 H         1 <1>         0.1200
     34 H34        -2.9149    1.5102    3.2467 H         1 <1>         0.1206
     35 H35        -3.0007    3.4704    1.7625 H         1 <1>         0.1142
     36 H36        -4.9673    3.8587    0.3363 H         1 <1>         0.1206
     37 H37        -6.8568    2.2841    0.3841 H         1 <1>         0.1275
     38 H38        -8.5679    1.5832    2.1413 H         1 <1>         0.1475
     39 H39       -10.4613    0.0196    2.1995 H         1 <1>         0.1286
     40 H40       -10.0823   -2.3988    1.9830 H         1 <1>         0.1482
@<TRIPOS>BOND
     1    1    2 2
     2    2   23 1
     3    2    3 1
     4    3    4 2
     5    3   24 1
     6    4    5 1
     7    4   11 1
     8    5   10 1
     9    5    6 1
    10    6    7 1
    11    6   25 1
    12    6   26 1
    13    7    8 1
    14    7   27 1
    15    7   28 1
    16    8    9 1
    17    9   10 1
    18    9   29 1
    19    9   30 1
    20   10   31 1
    21   10   32 1
    22   11   12 1
    23   12   23 ar
    24   12   13 ar
    25   13   14 1
    26   13   20 ar
    27   14   19 ar
    28   14   15 ar
    29   15   16 ar
    30   15   33 1
    31   16   17 ar
    32   16   34 1
    33   17   18 ar
    34   17   35 1
    35   18   19 ar
    36   18   36 1
    37   19   37 1
    38   20   21 ar
    39   20   38 1
    40   21   22 ar
    41   21   39 1
    42   22   23 ar
    43   22   40 1
@<TRIPOS>Similarity
1.0168
@<TRIPOS>ShapeSim
0.6188
@<TRIPOS>PharmSim
0.3981
# END
# Name:		C1COCCN1C2=CC(=O)C3=C(O2)C(=CC=C3)C4=CC=CC=C4
# Created and modified by SHAFTS on Sun Mar 21 16:57:45 2021

# 

@<TRIPOS>MOLECULE
C1COCCN1C2=CC(=O)C3=C(O2)C(=CC=C3)C4=CC=CC=C4
   40    43     0
SMALL
USER_CHARGE


@<TRIPOS>ATOM
      1 O1         -8.5955   -4.4676    1.6873 O.2       1 <1>        -0.4866
      2 C2         -7.6869   -3.6529    1.6645 C.2       1 <1>         0.0734
      3 C3         -6.3466   -4.0560    1.5091 C.2       1 <1>         0.0317
      4 C4         -5.3602   -3.1161    1.4881 C.2       1 <1>         0.0722
      5 N5         -4.0611   -3.5271    1.3355 N.pl3     1 <1>        -0.3685
      6 C6         -3.7324   -4.7185    0.5369 C.3       1 <1>         0.0020
      7 C7         -2.6319   -4.3426   -0.4618 C.3       1 <1>         0.0213
      8 O8         -1.5479   -3.7303    0.2406 O.3       1 <1>        -0.4576
      9 C9         -1.8917   -2.5075    0.8966 C.3       1 <1>         0.0212
     10 C10        -2.9539   -2.7861    1.9603 C.3       1 <1>         0.0019
     11 O11        -5.6113   -1.8057    1.6105 O.3       1 <1>        -0.3084
     12 C12        -6.8617   -1.3230    1.7636 C.ar      1 <1>         0.0667
     13 C13        -7.0905    0.0521    1.8883 C.ar      1 <1>        -0.0199
     14 C14        -5.9529    1.0031    1.8535 C.ar      1 <1>        -0.0707
     15 C15        -4.8363    0.7879    2.6593 C.ar      1 <1>        -0.0918
     16 C16        -3.7805    1.6758    2.6225 C.ar      1 <1>        -0.1020
     17 C17        -3.8291    2.7779    1.7879 C.ar      1 <1>        -0.1065
     18 C18        -4.9348    2.9966    0.9859 C.ar      1 <1>        -0.1017
     19 C19        -5.9941    2.1124    1.0106 C.ar      1 <1>        -0.0901
     20 C20        -8.3901    0.5224    2.0446 C.ar      1 <1>        -0.0689
     21 C21        -9.4569   -0.3585    2.0776 C.ar      1 <1>        -0.0833
     22 C22        -9.2458   -1.7163    1.9563 C.ar      1 <1>        -0.0672
     23 C23        -7.9507   -2.2045    1.7928 C.ar      1 <1>         0.0368
     24 H24        -6.1020   -5.1029    1.4075 H         1 <1>         0.1172
     25 H25        -3.3771   -5.5134    1.1927 H         1 <1>         0.1155
     26 H26        -4.6181   -5.0551   -0.0020 H         1 <1>         0.1227
     27 H27        -2.2771   -5.2405   -0.9677 H         1 <1>         0.1319
     28 H28        -3.0307   -3.6434   -1.1969 H         1 <1>         0.0957
     29 H29        -1.0044   -2.0851    1.3681 H         1 <1>         0.1337
     30 H30        -2.2879   -1.8016    0.1666 H         1 <1>         0.0975
     31 H31        -3.3232   -1.8443    2.3659 H         1 <1>         0.1209
     32 H32        -2.5228   -3.3873    2.7608 H         1 <1>         0.1137
     33 H33        -4.7975   -0.0721    3.3115 H         1 <1>         0.1200
     34 H34        -2.9149    1.5102    3.2467 H         1 <1>         0.1206
     35 H35        -3.0007    3.4704    1.7625 H         1 <1>         0.1142
     36 H36        -4.9673    3.8587    0.3363 H         1 <1>         0.1206
     37 H37        -6.8568    2.2841    0.3841 H         1 <1>         0.1275
     38 H38        -8.5679    1.5832    2.1413 H         1 <1>         0.1475
     39 H39       -10.4613    0.0196    2.1995 H         1 <1>         0.1286
     40 H40       -10.0823   -2.3988    1.9830 H         1 <1>         0.1482
@<TRIPOS>BOND
     1    1    2 2
     2    2   23 1
     3    2    3 1
     4    3    4 2
     5    3   24 1
     6    4    5 1
     7    4   11 1
     8    5   10 1
     9    5    6 1
    10    6    7 1
    11    6   25 1
    12    6   26 1
    13    7    8 1
    14    7   27 1
    15    7   28 1
    16    8    9 1
    17    9   10 1
    18    9   29 1
    19    9   30 1
    20   10   31 1
    21   10   32 1
    22   11   12 1
    23   12   23 ar
    24   12   13 ar
    25   13   14 1
    26   13   20 ar
    27   14   19 ar
    28   14   15 ar
    29   15   16 ar
    30   15   33 1
    31   16   17 ar
    32   16   34 1
    33   17   18 ar
    34   17   35 1
    35   18   19 ar
    36   18   36 1
    37   19   37 1
    38   20   21 ar
    39   20   38 1
    40   21   22 ar
    41   21   39 1
    42   22   23 ar
    43   22   40 1
@<TRIPOS>Similarity
1.0168
@<TRIPOS>ShapeSim
0.6188
@<TRIPOS>PharmSim
0.3981
# END
# Name:		COC1=CC=C(C=C1)CNC(=O)NC2=NC=C(S2)[N+](=O)[O-]
# Created and modified by SHAFTS on Sun Mar 21 16:57:45 2021

# 

@<TRIPOS>MOLECULE
COC1=CC=C(C=C1)CNC(=O)NC2=NC=C(S2)[N+](=O)[O-]
   33    34     0
SMALL
USER_CHARGE


@<TRIPOS>ATOM
      1 C1        -10.8404    2.0175    1.1011 C.3       1 <1>         0.0240
      2 O2        -10.3108    1.4268    2.2897 O.3       1 <1>        -0.4182
      3 C3         -9.4537    0.3841    2.1313 C.ar      1 <1>        -0.0157
      4 C4         -9.1246   -0.0576    0.8580 C.ar      1 <1>        -0.0712
      5 C5         -8.2527   -1.1173    0.6996 C.ar      1 <1>        -0.0974
      6 C6         -7.7085   -1.7380    1.8089 C.ar      1 <1>        -0.0875
      7 C7         -6.7580   -2.8943    1.6333 C.3       1 <1>        -0.0055
      8 N8         -5.3856   -2.3893    1.5463 N.am      1 <1>        -0.3170
      9 C9         -4.3601   -3.2490    1.3866 C.2       1 <1>         0.1576
     10 O10        -4.5739   -4.4438    1.3146 O.2       1 <1>        -0.4389
     11 N11        -3.0974   -2.7845    1.3067 N.am      1 <1>        -0.2221
     12 C12        -2.0397   -3.6712    1.1419 C.2       1 <1>         0.1353
     13 N13        -2.1578   -4.9586    1.0483 N.2       1 <1>        -0.3278
     14 C14        -1.0444   -5.6512    0.8943 C.2       1 <1>         0.0334
     15 C15         0.0667   -4.9139    0.8560 C.2       1 <1>         0.1873
     16 N16         1.4457   -5.4272    0.6926 N.pl3     1 <1>         0.0161
     17 O17         1.6404   -6.6242    0.5783 O.2       1 <1>        -0.2234
     18 O18         2.3855   -4.6526    0.6724 O.2       1 <1>        -0.2343
     19 S19        -0.3942   -3.2220    1.0258 S.3       1 <1>         0.0627
     20 C20        -8.0346   -1.2994    3.0789 C.ar      1 <1>        -0.0880
     21 C21        -8.9019   -0.2367    3.2425 C.ar      1 <1>        -0.0584
     22 H22       -11.5084    2.8362    1.3688 H         1 <1>         0.1211
     23 H23       -10.0228    2.4006    0.4904 H         1 <1>         0.0922
     24 H24       -11.3939    1.2664    0.5375 H         1 <1>         0.0922
     25 H25        -9.5499    0.4265   -0.0087 H         1 <1>         0.1110
     26 H26        -7.9961   -1.4615   -0.2914 H         1 <1>         0.1305
     27 H27        -6.8440   -3.5680    2.4858 H         1 <1>         0.1201
     28 H28        -7.0057   -3.4325    0.7183 H         1 <1>         0.1201
     29 H29        -5.2149   -1.4361    1.6038 H         1 <1>         0.3031
     30 H30        -2.9267   -1.8314    1.3641 H         1 <1>         0.3652
     31 H31        -1.0340   -6.7276    0.8068 H         1 <1>         0.2639
     32 H32        -7.6079   -1.7858    3.9438 H         1 <1>         0.1331
     33 H33        -9.1563    0.1055    4.2347 H         1 <1>         0.1262
@<TRIPOS>BOND
     1    1    2 1
     2    1   22 1
     3    1   23 1
     4    1   24 1
     5    2    3 1
     6    3   21 ar
     7    3    4 ar
     8    4    5 ar
     9    4   25 1
    10    5    6 ar
    11    5   26 1
    12    6    7 1
    13    6   20 ar
    14    7    8 1
    15    7   27 1
    16    7   28 1
    17    8    9 am
    18    8   29 1
    19    9   10 2
    20    9   11 am
    21   11   12 1
    22   11   30 1
    23   12   19 1
    24   12   13 2
    25   13   14 1
    26   14   15 2
    27   14   31 1
    28   15   16 1
    29   15   19 1
    30   16   17 2
    31   16   18 2
    32   20   21 ar
    33   20   32 1
    34   21   33 1
@<TRIPOS>Similarity
1.0168
@<TRIPOS>ShapeSim
0.7257
@<TRIPOS>PharmSim
0.2911
# END
# Name:		COC1=CC=C(C=C1)CNC(=O)NC2=NC=C(S2)[N+](=O)[O-]
# Created and modified by SHAFTS on Sun Mar 21 16:57:45 2021

# 

@<TRIPOS>MOLECULE
COC1=CC=C(C=C1)CNC(=O)NC2=NC=C(S2)[N+](=O)[O-]
   33    34     0
SMALL
USER_CHARGE


@<TRIPOS>ATOM
      1 C1        -10.8404    2.0175    1.1011 C.3       1 <1>         0.0240
      2 O2        -10.3108    1.4268    2.2897 O.3       1 <1>        -0.4182
      3 C3         -9.4537    0.3841    2.1313 C.ar      1 <1>        -0.0157
      4 C4         -9.1246   -0.0576    0.8580 C.ar      1 <1>        -0.0712
      5 C5         -8.2527   -1.1173    0.6996 C.ar      1 <1>        -0.0974
      6 C6         -7.7085   -1.7380    1.8089 C.ar      1 <1>        -0.0875
      7 C7         -6.7580   -2.8943    1.6333 C.3       1 <1>        -0.0055
      8 N8         -5.3856   -2.3893    1.5463 N.am      1 <1>        -0.3170
      9 C9         -4.3601   -3.2490    1.3866 C.2       1 <1>         0.1576
     10 O10        -4.5739   -4.4438    1.3146 O.2       1 <1>        -0.4389
     11 N11        -3.0974   -2.7845    1.3067 N.am      1 <1>        -0.2221
     12 C12        -2.0397   -3.6712    1.1419 C.2       1 <1>         0.1353
     13 N13        -2.1578   -4.9586    1.0483 N.2       1 <1>        -0.3278
     14 C14        -1.0444   -5.6512    0.8943 C.2       1 <1>         0.0334
     15 C15         0.0667   -4.9139    0.8560 C.2       1 <1>         0.1873
     16 N16         1.4457   -5.4272    0.6926 N.pl3     1 <1>         0.0161
     17 O17         1.6404   -6.6242    0.5783 O.2       1 <1>        -0.2234
     18 O18         2.3855   -4.6526    0.6724 O.2       1 <1>        -0.2343
     19 S19        -0.3942   -3.2220    1.0258 S.3       1 <1>         0.0627
     20 C20        -8.0346   -1.2994    3.0789 C.ar      1 <1>        -0.0880
     21 C21        -8.9019   -0.2367    3.2425 C.ar      1 <1>        -0.0584
     22 H22       -11.5084    2.8362    1.3688 H         1 <1>         0.1211
     23 H23       -10.0228    2.4006    0.4904 H         1 <1>         0.0922
     24 H24       -11.3939    1.2664    0.5375 H         1 <1>         0.0922
     25 H25        -9.5499    0.4265   -0.0087 H         1 <1>         0.1110
     26 H26        -7.9961   -1.4615   -0.2914 H         1 <1>         0.1305
     27 H27        -6.8440   -3.5680    2.4858 H         1 <1>         0.1201
     28 H28        -7.0057   -3.4325    0.7183 H         1 <1>         0.1201
     29 H29        -5.2149   -1.4361    1.6038 H         1 <1>         0.3031
     30 H30        -2.9267   -1.8314    1.3641 H         1 <1>         0.3652
     31 H31        -1.0340   -6.7276    0.8068 H         1 <1>         0.2639
     32 H32        -7.6079   -1.7858    3.9438 H         1 <1>         0.1331
     33 H33        -9.1563    0.1055    4.2347 H         1 <1>         0.1262
@<TRIPOS>BOND
     1    1    2 1
     2    1   22 1
     3    1   23 1
     4    1   24 1
     5    2    3 1
     6    3   21 ar
     7    3    4 ar
     8    4    5 ar
     9    4   25 1
    10    5    6 ar
    11    5   26 1
    12    6    7 1
    13    6   20 ar
    14    7    8 1
    15    7   27 1
    16    7   28 1
    17    8    9 am
    18    8   29 1
    19    9   10 2
    20    9   11 am
    21   11   12 1
    22   11   30 1
    23   12   19 1
    24   12   13 2
    25   13   14 1
    26   14   15 2
    27   14   31 1
    28   15   16 1
    29   15   19 1
    30   16   17 2
    31   16   18 2
    32   20   21 ar
    33   20   32 1
    34   21   33 1
@<TRIPOS>Similarity
1.0168
@<TRIPOS>ShapeSim
0.7257
@<TRIPOS>PharmSim
0.2911
# END
# Name:		COC1=CC=C(C=C1)CNC(=O)NC2=NC=C(S2)[N+](=O)[O-]
# Created and modified by SHAFTS on Sun Mar 21 16:57:45 2021

# 

@<TRIPOS>MOLECULE
COC1=CC=C(C=C1)CNC(=O)NC2=NC=C(S2)[N+](=O)[O-]
   33    34     0
SMALL
USER_CHARGE


@<TRIPOS>ATOM
      1 C1        -10.8404    2.0175    1.1011 C.3       1 <1>         0.0240
      2 O2        -10.3108    1.4268    2.2897 O.3       1 <1>        -0.4182
      3 C3         -9.4537    0.3841    2.1313 C.ar      1 <1>        -0.0157
      4 C4         -9.1246   -0.0576    0.8580 C.ar      1 <1>        -0.0712
      5 C5         -8.2527   -1.1173    0.6996 C.ar      1 <1>        -0.0974
      6 C6         -7.7085   -1.7380    1.8089 C.ar      1 <1>        -0.0875
      7 C7         -6.7580   -2.8943    1.6333 C.3       1 <1>        -0.0055
      8 N8         -5.3856   -2.3893    1.5463 N.am      1 <1>        -0.3170
      9 C9         -4.3601   -3.2490    1.3866 C.2       1 <1>         0.1576
     10 O10        -4.5739   -4.4438    1.3146 O.2       1 <1>        -0.4389
     11 N11        -3.0974   -2.7845    1.3067 N.am      1 <1>        -0.2221
     12 C12        -2.0397   -3.6712    1.1419 C.2       1 <1>         0.1353
     13 N13        -2.1578   -4.9586    1.0483 N.2       1 <1>        -0.3278
     14 C14        -1.0444   -5.6512    0.8943 C.2       1 <1>         0.0334
     15 C15         0.0667   -4.9139    0.8560 C.2       1 <1>         0.1873
     16 N16         1.4457   -5.4272    0.6926 N.pl3     1 <1>         0.0161
     17 O17         1.6404   -6.6242    0.5783 O.2       1 <1>        -0.2234
     18 O18         2.3855   -4.6526    0.6724 O.2       1 <1>        -0.2343
     19 S19        -0.3942   -3.2220    1.0258 S.3       1 <1>         0.0627
     20 C20        -8.0346   -1.2994    3.0789 C.ar      1 <1>        -0.0880
     21 C21        -8.9019   -0.2367    3.2425 C.ar      1 <1>        -0.0584
     22 H22       -11.5084    2.8362    1.3688 H         1 <1>         0.1211
     23 H23       -10.0228    2.4006    0.4904 H         1 <1>         0.0922
     24 H24       -11.3939    1.2664    0.5375 H         1 <1>         0.0922
     25 H25        -9.5499    0.4265   -0.0087 H         1 <1>         0.1110
     26 H26        -7.9961   -1.4615   -0.2914 H         1 <1>         0.1305
     27 H27        -6.8440   -3.5680    2.4858 H         1 <1>         0.1201
     28 H28        -7.0057   -3.4325    0.7183 H         1 <1>         0.1201
     29 H29        -5.2149   -1.4361    1.6038 H         1 <1>         0.3031
     30 H30        -2.9267   -1.8314    1.3641 H         1 <1>         0.3652
     31 H31        -1.0340   -6.7276    0.8068 H         1 <1>         0.2639
     32 H32        -7.6079   -1.7858    3.9438 H         1 <1>         0.1331
     33 H33        -9.1563    0.1055    4.2347 H         1 <1>         0.1262
@<TRIPOS>BOND
     1    1    2 1
     2    1   22 1
     3    1   23 1
     4    1   24 1
     5    2    3 1
     6    3   21 ar
     7    3    4 ar
     8    4    5 ar
     9    4   25 1
    10    5    6 ar
    11    5   26 1
    12    6    7 1
    13    6   20 ar
    14    7    8 1
    15    7   27 1
    16    7   28 1
    17    8    9 am
    18    8   29 1
    19    9   10 2
    20    9   11 am
    21   11   12 1
    22   11   30 1
    23   12   19 1
    24   12   13 2
    25   13   14 1
    26   14   15 2
    27   14   31 1
    28   15   16 1
    29   15   19 1
    30   16   17 2
    31   16   18 2
    32   20   21 ar
    33   20   32 1
    34   21   33 1
@<TRIPOS>Similarity
1.0168
@<TRIPOS>ShapeSim
0.7257
@<TRIPOS>PharmSim
0.2911
# END
# Name:		C1C(C(OC2=CC(=CC(=C21)O)O)C3=CC(=C(C=C3)O)O)O
# Created and modified by SHAFTS on Sun Mar 21 16:57:45 2021

# 

@<TRIPOS>MOLECULE
C1C(C(OC2=CC(=CC(=C21)O)O)C3=CC(=C(C=C3)O)O)O
   35    37     0
SMALL
USER_CHARGE


@<TRIPOS>ATOM
      1 O1         -8.5889    1.9454    2.0390 O.3       1 <1>        -0.4294
      2 C2         -8.3305    0.6125    1.9801 C.ar      1 <1>        -0.0207
      3 C3         -9.3691   -0.3010    2.0770 C.ar      1 <1>        -0.0313
      4 C4         -9.1015   -1.6589    2.0143 C.ar      1 <1>        -0.0262
      5 O5        -10.1196   -2.5542    2.1088 O.3       1 <1>        -0.4315
      6 C6         -7.7963   -2.1094    1.8545 C.ar      1 <1>        -0.0320
      7 C7         -7.5465   -3.5946    1.7796 C.3       1 <1>        -0.0073
      8 C8         -6.0669   -3.8827    2.0449 C.3       1 <1>         0.0157
      9 H9         -5.8412   -4.9164    1.7830 H         1 <1>         0.1122
     10 O10        -5.7729   -3.6604    3.4255 O.3       1 <1>        -0.4794
     11 C11        -5.2286   -2.9348    1.1777 C.3       1 <1>         0.0730
     12 H12        -5.5200   -3.0390    0.1325 H         1 <1>         0.1573
     13 C13        -3.7663   -3.2652    1.3321 C.ar      1 <1>        -0.0479
     14 C14        -3.0713   -2.8165    2.4393 C.ar      1 <1>        -0.0733
     15 C15        -1.7293   -3.1167    2.5855 C.ar      1 <1>        -0.0550
     16 C16        -1.0789   -3.8688    1.6211 C.ar      1 <1>        -0.0052
     17 O17         0.2407   -4.1653    1.7635 O.3       1 <1>        -0.4310
     18 C18        -1.7790   -4.3210    0.5063 C.ar      1 <1>        -0.0037
     19 O19        -1.1449   -5.0601   -0.4429 O.3       1 <1>        -0.4317
     20 C20        -3.1244   -4.0212    0.3686 C.ar      1 <1>        -0.0484
     21 O21        -5.4685   -1.5958    1.6128 O.3       1 <1>        -0.3771
     22 C22        -6.7590   -1.1983    1.7624 C.ar      1 <1>         0.0198
     23 C23        -7.0297    0.1646    1.8178 C.ar      1 <1>        -0.0160
     24 H24        -8.7668    2.3498    1.1788 H         1 <1>         0.3664
     25 H25       -10.3845    0.0453    2.2014 H         1 <1>         0.1317
     26 H26       -10.5141   -2.7924    1.2587 H         1 <1>         0.3580
     27 H27        -8.1548   -4.1028    2.5278 H         1 <1>         0.0779
     28 H28        -7.8147   -3.9578    0.7875 H         1 <1>         0.0779
     29 H29        -6.2826   -4.2163    4.0307 H         1 <1>         0.3276
     30 H30        -3.5774   -2.2301    3.1919 H         1 <1>         0.1443
     31 H31        -1.1884   -2.7643    3.4512 H         1 <1>         0.1347
     32 H32         0.4094   -4.9907    2.2381 H         1 <1>         0.3567
     33 H33        -1.1745   -6.0135   -0.2838 H         1 <1>         0.3564
     34 H34        -3.6699   -4.3708   -0.4954 H         1 <1>         0.1391
     35 H35        -6.2218    0.8769    1.7384 H         1 <1>         0.1384
@<TRIPOS>BOND
     1    1    2 1
     2    1   24 1
     3    2   23 ar
     4    2    3 ar
     5    3    4 ar
     6    3   25 1
     7    4    5 1
     8    4    6 ar
     9    5   26 1
    10    6   22 ar
    11    6    7 1
    12    7    8 1
    13    7   27 1
    14    7   28 1
    15    8    9 1
    16    8   10 1
    17    8   11 1
    18   10   29 1
    19   11   12 1
    20   11   13 1
    21   11   21 1
    22   13   20 ar
    23   13   14 ar
    24   14   15 ar
    25   14   30 1
    26   15   16 ar
    27   15   31 1
    28   16   17 1
    29   16   18 ar
    30   17   32 1
    31   18   19 1
    32   18   20 ar
    33   19   33 1
    34   20   34 1
    35   21   22 1
    36   22   23 ar
    37   23   35 1
@<TRIPOS>Similarity
1.0166
@<TRIPOS>ShapeSim
0.7295
@<TRIPOS>PharmSim
0.2871
# END
# Name:		C1C(C(OC2=CC(=CC(=C21)O)O)C3=CC(=C(C=C3)O)O)O
# Created and modified by SHAFTS on Sun Mar 21 16:57:45 2021

# 

@<TRIPOS>MOLECULE
C1C(C(OC2=CC(=CC(=C21)O)O)C3=CC(=C(C=C3)O)O)O
   35    37     0
SMALL
USER_CHARGE


@<TRIPOS>ATOM
      1 O1         -8.5889    1.9454    2.0390 O.3       1 <1>        -0.4294
      2 C2         -8.3305    0.6125    1.9801 C.ar      1 <1>        -0.0207
      3 C3         -9.3691   -0.3010    2.0770 C.ar      1 <1>        -0.0313
      4 C4         -9.1015   -1.6589    2.0143 C.ar      1 <1>        -0.0262
      5 O5        -10.1196   -2.5542    2.1088 O.3       1 <1>        -0.4315
      6 C6         -7.7963   -2.1094    1.8545 C.ar      1 <1>        -0.0320
      7 C7         -7.5465   -3.5946    1.7796 C.3       1 <1>        -0.0073
      8 C8         -6.0669   -3.8827    2.0449 C.3       1 <1>         0.0157
      9 H9         -5.8412   -4.9164    1.7830 H         1 <1>         0.1122
     10 O10        -5.7729   -3.6604    3.4255 O.3       1 <1>        -0.4794
     11 C11        -5.2286   -2.9348    1.1777 C.3       1 <1>         0.0730
     12 H12        -5.5200   -3.0390    0.1325 H         1 <1>         0.1573
     13 C13        -3.7663   -3.2652    1.3321 C.ar      1 <1>        -0.0479
     14 C14        -3.0713   -2.8165    2.4393 C.ar      1 <1>        -0.0733
     15 C15        -1.7293   -3.1167    2.5855 C.ar      1 <1>        -0.0550
     16 C16        -1.0789   -3.8688    1.6211 C.ar      1 <1>        -0.0052
     17 O17         0.2407   -4.1653    1.7635 O.3       1 <1>        -0.4310
     18 C18        -1.7790   -4.3210    0.5063 C.ar      1 <1>        -0.0037
     19 O19        -1.1449   -5.0601   -0.4429 O.3       1 <1>        -0.4317
     20 C20        -3.1244   -4.0212    0.3686 C.ar      1 <1>        -0.0484
     21 O21        -5.4685   -1.5958    1.6128 O.3       1 <1>        -0.3771
     22 C22        -6.7590   -1.1983    1.7624 C.ar      1 <1>         0.0198
     23 C23        -7.0297    0.1646    1.8178 C.ar      1 <1>        -0.0160
     24 H24        -8.7668    2.3498    1.1788 H         1 <1>         0.3664
     25 H25       -10.3845    0.0453    2.2014 H         1 <1>         0.1317
     26 H26       -10.5141   -2.7924    1.2587 H         1 <1>         0.3580
     27 H27        -8.1548   -4.1028    2.5278 H         1 <1>         0.0779
     28 H28        -7.8147   -3.9578    0.7875 H         1 <1>         0.0779
     29 H29        -6.2826   -4.2163    4.0307 H         1 <1>         0.3276
     30 H30        -3.5774   -2.2301    3.1919 H         1 <1>         0.1443
     31 H31        -1.1884   -2.7643    3.4512 H         1 <1>         0.1347
     32 H32         0.4094   -4.9907    2.2381 H         1 <1>         0.3567
     33 H33        -1.1745   -6.0135   -0.2838 H         1 <1>         0.3564
     34 H34        -3.6699   -4.3708   -0.4954 H         1 <1>         0.1391
     35 H35        -6.2218    0.8769    1.7384 H         1 <1>         0.1384
@<TRIPOS>BOND
     1    1    2 1
     2    1   24 1
     3    2   23 ar
     4    2    3 ar
     5    3    4 ar
     6    3   25 1
     7    4    5 1
     8    4    6 ar
     9    5   26 1
    10    6   22 ar
    11    6    7 1
    12    7    8 1
    13    7   27 1
    14    7   28 1
    15    8    9 1
    16    8   10 1
    17    8   11 1
    18   10   29 1
    19   11   12 1
    20   11   13 1
    21   11   21 1
    22   13   20 ar
    23   13   14 ar
    24   14   15 ar
    25   14   30 1
    26   15   16 ar
    27   15   31 1
    28   16   17 1
    29   16   18 ar
    30   17   32 1
    31   18   19 1
    32   18   20 ar
    33   19   33 1
    34   20   34 1
    35   21   22 1
    36   22   23 ar
    37   23   35 1
@<TRIPOS>Similarity
1.0166
@<TRIPOS>ShapeSim
0.7295
@<TRIPOS>PharmSim
0.2871
# END
# Name:		C1C(C(OC2=CC(=CC(=C21)O)O)C3=CC(=C(C=C3)O)O)O
# Created and modified by SHAFTS on Sun Mar 21 16:57:45 2021

# 

@<TRIPOS>MOLECULE
C1C(C(OC2=CC(=CC(=C21)O)O)C3=CC(=C(C=C3)O)O)O
   35    37     0
SMALL
USER_CHARGE


@<TRIPOS>ATOM
      1 O1         -8.5889    1.9454    2.0390 O.3       1 <1>        -0.4294
      2 C2         -8.3305    0.6125    1.9801 C.ar      1 <1>        -0.0207
      3 C3         -9.3691   -0.3010    2.0770 C.ar      1 <1>        -0.0313
      4 C4         -9.1015   -1.6589    2.0143 C.ar      1 <1>        -0.0262
      5 O5        -10.1196   -2.5542    2.1088 O.3       1 <1>        -0.4315
      6 C6         -7.7963   -2.1094    1.8545 C.ar      1 <1>        -0.0320
      7 C7         -7.5465   -3.5946    1.7796 C.3       1 <1>        -0.0073
      8 C8         -6.0669   -3.8827    2.0449 C.3       1 <1>         0.0157
      9 H9         -5.8412   -4.9164    1.7830 H         1 <1>         0.1122
     10 O10        -5.7729   -3.6604    3.4255 O.3       1 <1>        -0.4794
     11 C11        -5.2286   -2.9348    1.1777 C.3       1 <1>         0.0730
     12 H12        -5.5200   -3.0390    0.1325 H         1 <1>         0.1573
     13 C13        -3.7663   -3.2652    1.3321 C.ar      1 <1>        -0.0479
     14 C14        -3.0713   -2.8165    2.4393 C.ar      1 <1>        -0.0733
     15 C15        -1.7293   -3.1167    2.5855 C.ar      1 <1>        -0.0550
     16 C16        -1.0789   -3.8688    1.6211 C.ar      1 <1>        -0.0052
     17 O17         0.2407   -4.1653    1.7635 O.3       1 <1>        -0.4310
     18 C18        -1.7790   -4.3210    0.5063 C.ar      1 <1>        -0.0037
     19 O19        -1.1449   -5.0601   -0.4429 O.3       1 <1>        -0.4317
     20 C20        -3.1244   -4.0212    0.3686 C.ar      1 <1>        -0.0484
     21 O21        -5.4685   -1.5958    1.6128 O.3       1 <1>        -0.3771
     22 C22        -6.7590   -1.1983    1.7624 C.ar      1 <1>         0.0198
     23 C23        -7.0297    0.1646    1.8178 C.ar      1 <1>        -0.0160
     24 H24        -8.7668    2.3498    1.1788 H         1 <1>         0.3664
     25 H25       -10.3845    0.0453    2.2014 H         1 <1>         0.1317
     26 H26       -10.5141   -2.7924    1.2587 H         1 <1>         0.3580
     27 H27        -8.1548   -4.1028    2.5278 H         1 <1>         0.0779
     28 H28        -7.8147   -3.9578    0.7875 H         1 <1>         0.0779
     29 H29        -6.2826   -4.2163    4.0307 H         1 <1>         0.3276
     30 H30        -3.5774   -2.2301    3.1919 H         1 <1>         0.1443
     31 H31        -1.1884   -2.7643    3.4512 H         1 <1>         0.1347
     32 H32         0.4094   -4.9907    2.2381 H         1 <1>         0.3567
     33 H33        -1.1745   -6.0135   -0.2838 H         1 <1>         0.3564
     34 H34        -3.6699   -4.3708   -0.4954 H         1 <1>         0.1391
     35 H35        -6.2218    0.8769    1.7384 H         1 <1>         0.1384
@<TRIPOS>BOND
     1    1    2 1
     2    1   24 1
     3    2   23 ar
     4    2    3 ar
     5    3    4 ar
     6    3   25 1
     7    4    5 1
     8    4    6 ar
     9    5   26 1
    10    6   22 ar
    11    6    7 1
    12    7    8 1
    13    7   27 1
    14    7   28 1
    15    8    9 1
    16    8   10 1
    17    8   11 1
    18   10   29 1
    19   11   12 1
    20   11   13 1
    21   11   21 1
    22   13   20 ar
    23   13   14 ar
    24   14   15 ar
    25   14   30 1
    26   15   16 ar
    27   15   31 1
    28   16   17 1
    29   16   18 ar
    30   17   32 1
    31   18   19 1
    32   18   20 ar
    33   19   33 1
    34   20   34 1
    35   21   22 1
    36   22   23 ar
    37   23   35 1
@<TRIPOS>Similarity
1.0166
@<TRIPOS>ShapeSim
0.7295
@<TRIPOS>PharmSim
0.2871
# END
# Name:		C[N+]1=C2C(=C3C=CC(=C(C3=C1)OC)OC)C=CC4=CC5=C(C=C42)OCO5
# Created and modified by SHAFTS on Sun Mar 21 16:57:45 2021

# 

@<TRIPOS>MOLECULE
C[N+]1=C2C(=C3C=CC(=C(C3=C1)OC)OC)C=CC4=CC5=C(C=C42)OCO5
   44    48     0
SMALL
USER_CHARGE


@<TRIPOS>ATOM
      1 C1         -1.1395   -3.7305    1.0471 C.3       1 <1>         0.0337
      2 O2         -2.3875   -4.4235    1.1138 O.3       1 <1>        -0.3980
      3 C3         -3.5037   -3.6687    1.2990 C.ar      1 <1>         0.0569
      4 C4         -3.3901   -2.2862    1.4148 C.ar      1 <1>        -0.0282
      5 C5         -4.4970   -1.5024    1.5873 C.ar      1 <1>        -0.0552
      6 C6         -5.7587   -2.0890    1.6563 C.ar      1 <1>        -0.0238
      7 C7         -6.9871   -1.3063    1.8026 C.ar      1 <1>        -0.0141
      8 C8         -8.2317   -1.9803    1.7938 C.ar      1 <1>         0.0205
      9 C9         -9.4360   -1.1505    1.7598 C.ar      1 <1>        -0.0152
     10 C10       -10.6817   -1.6000    1.3160 C.ar      1 <1>        -0.0256
     11 C11       -11.8053   -0.8124    1.4522 C.ar      1 <1>         0.0481
     12 C12       -11.7040    0.4862    1.9706 C.ar      1 <1>         0.0525
     13 C13       -10.4702    0.9994    2.2945 C.ar      1 <1>        -0.0234
     14 C14        -9.3189    0.2240    2.0959 C.ar      1 <1>        -0.0381
     15 C15        -8.0431    0.8221    2.1676 C.ar      1 <1>        -0.0582
     16 C16        -6.9254    0.0836    1.9948 C.ar      1 <1>        -0.0546
     17 O17       -12.9580    1.0178    2.0533 O.3       1 <1>        -0.3659
     18 C18       -13.7681    0.2256    1.1655 C.3       1 <1>         0.1231
     19 O19       -13.1122   -1.0544    1.1409 O.3       1 <1>        -0.3670
     20 N20        -8.2385   -3.3116    1.8792 N.ar      1 <1>        -0.3525
     21 C21        -9.4507   -4.0534    2.2336 C.3       1 <1>         0.0323
     22 C22        -7.1686   -4.0559    1.7149 C.ar      1 <1>         0.0398
     23 C23        -5.8877   -3.4986    1.5751 C.ar      1 <1>         0.0384
     24 C24        -4.7424   -4.2841    1.3718 C.ar      1 <1>         0.0675
     25 O25        -4.8441   -5.6333    1.2483 O.3       1 <1>        -0.4050
     26 C26        -5.0299   -6.1519   -0.0703 C.3       1 <1>         0.0248
     27 H27        -1.1586   -3.0268    0.2149 H         1 <1>         0.0981
     28 H28        -0.9750   -3.1878    1.9780 H         1 <1>         0.0981
     29 H29        -0.3329   -4.4483    0.8976 H         1 <1>         0.1343
     30 H30        -2.4142   -1.8256    1.3681 H         1 <1>         0.1576
     31 H31        -4.3888   -0.4311    1.6684 H         1 <1>         0.1611
     32 H32       -10.7849   -2.5419    0.7966 H         1 <1>         0.1503
     33 H33       -10.3873    1.9974    2.6994 H         1 <1>         0.1665
     34 H34        -7.9607    1.8808    2.3626 H         1 <1>         0.1674
     35 H35        -5.9636    0.5753    2.0064 H         1 <1>         0.1521
     36 H36       -14.7812    0.1296    1.5573 H         1 <1>         0.2171
     37 H37       -13.7865    0.6667    0.1688 H         1 <1>         0.1807
     38 H38       -10.0037   -4.2999    1.3272 H         1 <1>         0.1301
     39 H39        -9.1760   -4.9716    2.7528 H         1 <1>         0.1373
     40 H40       -10.0744   -3.4406    2.8845 H         1 <1>         0.1301
     41 H41        -7.2896   -5.1293    1.6871 H         1 <1>         0.2808
     42 H42        -4.1857   -5.8631   -0.6965 H         1 <1>         0.0922
     43 H43        -5.0953   -7.2390   -0.0273 H         1 <1>         0.1284
     44 H44        -5.9503   -5.7489   -0.4928 H         1 <1>         0.0849
@<TRIPOS>BOND
     1    1    2 1
     2    1   27 1
     3    1   28 1
     4    1   29 1
     5    2    3 1
     6    3   24 ar
     7    3    4 ar
     8    4    5 ar
     9    4   30 1
    10    5    6 ar
    11    5   31 1
    12    6   23 ar
    13    6    7 ar
    14    7   16 ar
    15    7    8 ar
    16    8    9 ar
    17    8   20 ar
    18    9   14 ar
    19    9   10 ar
    20   10   11 ar
    21   10   32 1
    22   11   19 1
    23   11   12 ar
    24   12   13 ar
    25   12   17 1
    26   13   14 ar
    27   13   33 1
    28   14   15 ar
    29   15   16 ar
    30   15   34 1
    31   16   35 1
    32   17   18 1
    33   18   19 1
    34   18   36 1
    35   18   37 1
    36   20   21 1
    37   20   22 ar
    38   21   38 1
    39   21   39 1
    40   21   40 1
    41   22   23 ar
    42   22   41 1
    43   23   24 ar
    44   24   25 1
    45   25   26 1
    46   26   42 1
    47   26   43 1
    48   26   44 1
@<TRIPOS>Similarity
1.0153
@<TRIPOS>ShapeSim
0.6387
@<TRIPOS>PharmSim
0.3765
# END
# Name:		CC1=CC=C(C=C1)NC2=CC(=O)C3=C(C2=O)N=C(S3)C
# Created and modified by SHAFTS on Sun Mar 21 16:57:45 2021

# 

@<TRIPOS>MOLECULE
CC1=CC=C(C=C1)NC2=CC(=O)C3=C(C2=O)N=C(S3)C
   32    34     0
SMALL
USER_CHARGE


@<TRIPOS>ATOM
      1 C1          1.8893   -1.8436    0.6576 C.3       1 <1>         0.0155
      2 C2          0.6734   -2.6905    0.3835 C.2       1 <1>         0.0431
      3 N3         -0.4106   -2.6525    1.0710 N.2       1 <1>        -0.3637
      4 C4         -1.4075   -3.4599    0.7135 C.2       1 <1>         0.0936
      5 C5         -1.0888   -4.2340   -0.3849 C.2       1 <1>         0.1211
      6 S6          0.5496   -3.8241   -0.8872 S.3       1 <1>        -0.0121
      7 C7         -2.0666   -5.1941   -0.9332 C.2       1 <1>         0.1293
      8 O8         -1.7730   -5.8706   -1.9015 O.2       1 <1>        -0.4330
      9 C9         -3.3863   -5.3375   -0.3191 C.2       1 <1>         0.0555
     10 C10        -3.7197   -4.5893    0.7577 C.2       1 <1>         0.0726
     11 N11        -4.9644   -4.7307    1.3298 N.pl3     1 <1>        -0.3540
     12 C12        -5.7888   -3.6169    1.4905 C.ar      1 <1>        -0.0684
     13 C13        -5.4316   -2.3983    0.9252 C.ar      1 <1>        -0.0745
     14 C14        -6.2503   -1.2982    1.0860 C.ar      1 <1>        -0.1001
     15 C15        -7.4243   -1.4074    1.8090 C.ar      1 <1>        -0.1172
     16 C16        -8.3149   -0.2041    1.9826 C.3       1 <1>        -0.0468
     17 C17        -7.7832   -2.6184    2.3727 C.ar      1 <1>        -0.0978
     18 C18        -6.9723   -3.7242    2.2117 C.ar      1 <1>        -0.0708
     19 C19        -2.7547   -3.6187    1.3258 C.2       1 <1>         0.1961
     20 O20        -3.0635   -2.9521    2.2924 O.2       1 <1>        -0.3824
     21 H21         2.6630   -2.0703   -0.0759 H         1 <1>         0.0888
     22 H22         1.6209   -0.7894    0.5883 H         1 <1>         0.0960
     23 H23         2.2635   -2.0582    1.6586 H         1 <1>         0.0960
     24 H24        -4.0964   -6.0421   -0.7263 H         1 <1>         0.1765
     25 H25        -5.2680   -5.6048    1.6209 H         1 <1>         0.3173
     26 H26        -4.5147   -2.3120    0.3610 H         1 <1>         0.1083
     27 H27        -5.9734   -0.3511    0.6469 H         1 <1>         0.1208
     28 H28        -9.0352   -0.1644    1.1656 H         1 <1>         0.0553
     29 H29        -8.8456   -0.2789    2.9318 H         1 <1>         0.0553
     30 H30        -7.7077    0.7012    1.9762 H         1 <1>         0.0482
     31 H31        -8.7007   -2.6999    2.9367 H         1 <1>         0.1284
     32 H32        -7.2534   -4.6695    2.6519 H         1 <1>         0.1234
@<TRIPOS>BOND
     1    1    2 1
     2    1   21 1
     3    1   22 1
     4    1   23 1
     5    2    6 1
     6    2    3 2
     7    3    4 1
     8    4   19 1
     9    4    5 2
    10    5    6 1
    11    5    7 1
    12    7    8 2
    13    7    9 1
    14    9   10 2
    15    9   24 1
    16   10   11 1
    17   10   19 1
    18   11   12 1
    19   11   25 1
    20   12   18 ar
    21   12   13 ar
    22   13   14 ar
    23   13   26 1
    24   14   15 ar
    25   14   27 1
    26   15   16 1
    27   15   17 ar
    28   16   28 1
    29   16   29 1
    30   16   30 1
    31   17   18 ar
    32   17   31 1
    33   18   32 1
    34   19   20 2
@<TRIPOS>Similarity
1.0149
@<TRIPOS>ShapeSim
0.7056
@<TRIPOS>PharmSim
0.3094
# END
# Name:		COC1=C(C=CC(=C1)C=CC(=O)CC(=O)C=CC2=CC(=C(C=C2)O)OC)O
# Created and modified by SHAFTS on Sun Mar 21 16:57:45 2021

# 

@<TRIPOS>MOLECULE
COC1=C(C=CC(=C1)C=CC(=O)CC(=O)C=CC2=CC(=C(C=C2)O)OC)O
   47    48     0
SMALL
USER_CHARGE


@<TRIPOS>ATOM
      1 C1          3.9246   -8.1920    0.2370 C.3       1 <1>         0.0238
      2 O2          4.5779   -6.9219    0.2818 O.3       1 <1>        -0.4127
      3 C3          3.7877   -5.8263    0.4392 C.ar      1 <1>         0.0241
      4 C4          2.4202   -5.9729    0.5530 C.ar      1 <1>        -0.0525
      5 C5          1.6093   -4.8417    0.7151 C.ar      1 <1>        -0.0800
      6 C6          0.1542   -4.9905    0.8373 C.2       1 <1>        -0.0700
      7 C7         -0.6284   -3.8946    0.9939 C.2       1 <1>        -0.0228
      8 C8         -2.0241   -4.0374    1.1112 C.2       1 <1>         0.0759
      9 O9         -2.5270   -5.1424    1.0719 O.2       1 <1>        -0.4599
     10 C10        -2.8939   -2.8192    1.2853 C.3       1 <1>         0.1101
     11 C11        -4.3368   -3.2424    1.3852 C.2       1 <1>         0.0759
     12 O12        -4.6304   -4.4195    1.3211 O.2       1 <1>        -0.4599
     13 C13        -5.3446   -2.2738    1.5527 C.2       1 <1>        -0.0225
     14 C14        -6.6426   -2.6545    1.6425 C.2       1 <1>        -0.0683
     15 C15        -7.6933   -1.6445    1.8172 C.ar      1 <1>        -0.0775
     16 C16        -7.3578   -0.2867    1.8856 C.ar      1 <1>        -0.0833
     17 C17        -8.3461    0.6587    2.0490 C.ar      1 <1>        -0.0550
     18 C18        -9.6755    0.2693    2.1464 C.ar      1 <1>         0.0084
     19 O19       -10.6451    1.2063    2.3070 O.3       1 <1>        -0.4249
     20 C20       -10.0181   -1.0815    2.0792 C.ar      1 <1>         0.0245
     21 O21       -11.3215   -1.4578    2.1747 O.3       1 <1>        -0.4127
     22 C22       -11.6001   -2.8572    2.0980 C.3       1 <1>         0.0238
     23 C23        -9.0355   -2.0357    1.9103 C.ar      1 <1>        -0.0509
     24 C24         2.1915   -3.5690    0.7605 C.ar      1 <1>        -0.0849
     25 C25         3.5573   -3.4327    0.6460 C.ar      1 <1>        -0.0553
     26 C26         4.3603   -4.5551    0.4912 C.ar      1 <1>         0.0084
     27 O27         5.7063   -4.4141    0.3793 O.3       1 <1>        -0.4249
     28 H28         4.6680   -8.9787    0.1086 H         1 <1>         0.1194
     29 H29         3.3811   -8.3542    1.1679 H         1 <1>         0.0904
     30 H30         3.2262   -8.2120   -0.5997 H         1 <1>         0.0904
     31 H31         1.9763   -6.9568    0.5170 H         1 <1>         0.1282
     32 H32        -0.2930   -5.9730    0.8023 H         1 <1>         0.1566
     33 H33        -0.1811   -2.9123    1.0288 H         1 <1>         0.1251
     34 H34        -2.6055   -2.2939    2.1958 H         1 <1>         0.1253
     35 H35        -2.7680   -2.1572    0.4286 H         1 <1>         0.1253
     36 H36        -5.0836   -1.2273    1.6097 H         1 <1>         0.1251
     37 H37        -6.9035   -3.7010    1.5855 H         1 <1>         0.1570
     38 H38        -6.3248    0.0191    1.8104 H         1 <1>         0.1311
     39 H39        -8.0862    1.7056    2.1020 H         1 <1>         0.1400
     40 H40       -11.0090    1.5421    1.4764 H         1 <1>         0.3597
     41 H41       -12.6743   -3.0192    2.1875 H         1 <1>         0.1194
     42 H42       -11.2528   -3.2449    1.1403 H         1 <1>         0.0904
     43 H43       -11.0858   -3.3750    2.9076 H         1 <1>         0.0904
     44 H44        -9.2996   -3.0816    1.8579 H         1 <1>         0.1287
     45 H45         1.5699   -2.6947    0.8849 H         1 <1>         0.1307
     46 H46         4.0053   -2.4506    0.6808 H         1 <1>         0.1400
     47 H47         6.1758   -4.4372    1.2243 H         1 <1>         0.3597
@<TRIPOS>BOND
     1    1    2 1
     2    1   28 1
     3    1   29 1
     4    1   30 1
     5    2    3 1
     6    3   26 ar
     7    3    4 ar
     8    4    5 ar
     9    4   31 1
    10    5    6 1
    11    5   24 ar
    12    6    7 2
    13    6   32 1
    14    7    8 1
    15    7   33 1
    16    8    9 2
    17    8   10 1
    18   10   11 1
    19   10   34 1
    20   10   35 1
    21   11   12 2
    22   11   13 1
    23   13   14 2
    24   13   36 1
    25   14   15 1
    26   14   37 1
    27   15   23 ar
    28   15   16 ar
    29   16   17 ar
    30   16   38 1
    31   17   18 ar
    32   17   39 1
    33   18   19 1
    34   18   20 ar
    35   19   40 1
    36   20   21 1
    37   20   23 ar
    38   21   22 1
    39   22   41 1
    40   22   42 1
    41   22   43 1
    42   23   44 1
    43   24   25 ar
    44   24   45 1
    45   25   26 ar
    46   25   46 1
    47   26   27 1
    48   27   47 1
@<TRIPOS>Similarity
1.0148
@<TRIPOS>ShapeSim
0.7240
@<TRIPOS>PharmSim
0.2908
# END
# Name:		COC1=C(C=CC(=C1)C=CC(=O)CC(=O)C=CC2=CC(=C(C=C2)O)OC)O
# Created and modified by SHAFTS on Sun Mar 21 16:57:45 2021

# 

@<TRIPOS>MOLECULE
COC1=C(C=CC(=C1)C=CC(=O)CC(=O)C=CC2=CC(=C(C=C2)O)OC)O
   47    48     0
SMALL
USER_CHARGE


@<TRIPOS>ATOM
      1 C1          3.9246   -8.1920    0.2370 C.3       1 <1>         0.0238
      2 O2          4.5779   -6.9219    0.2818 O.3       1 <1>        -0.4127
      3 C3          3.7877   -5.8263    0.4392 C.ar      1 <1>         0.0241
      4 C4          2.4202   -5.9729    0.5530 C.ar      1 <1>        -0.0525
      5 C5          1.6093   -4.8417    0.7151 C.ar      1 <1>        -0.0800
      6 C6          0.1542   -4.9905    0.8373 C.2       1 <1>        -0.0700
      7 C7         -0.6284   -3.8946    0.9939 C.2       1 <1>        -0.0228
      8 C8         -2.0241   -4.0374    1.1112 C.2       1 <1>         0.0759
      9 O9         -2.5270   -5.1424    1.0719 O.2       1 <1>        -0.4599
     10 C10        -2.8939   -2.8192    1.2853 C.3       1 <1>         0.1101
     11 C11        -4.3368   -3.2424    1.3852 C.2       1 <1>         0.0759
     12 O12        -4.6304   -4.4195    1.3211 O.2       1 <1>        -0.4599
     13 C13        -5.3446   -2.2738    1.5527 C.2       1 <1>        -0.0225
     14 C14        -6.6426   -2.6545    1.6425 C.2       1 <1>        -0.0683
     15 C15        -7.6933   -1.6445    1.8172 C.ar      1 <1>        -0.0775
     16 C16        -7.3578   -0.2867    1.8856 C.ar      1 <1>        -0.0833
     17 C17        -8.3461    0.6587    2.0490 C.ar      1 <1>        -0.0550
     18 C18        -9.6755    0.2693    2.1464 C.ar      1 <1>         0.0084
     19 O19       -10.6451    1.2063    2.3070 O.3       1 <1>        -0.4249
     20 C20       -10.0181   -1.0815    2.0792 C.ar      1 <1>         0.0245
     21 O21       -11.3215   -1.4578    2.1747 O.3       1 <1>        -0.4127
     22 C22       -11.6001   -2.8572    2.0980 C.3       1 <1>         0.0238
     23 C23        -9.0355   -2.0357    1.9103 C.ar      1 <1>        -0.0509
     24 C24         2.1915   -3.5690    0.7605 C.ar      1 <1>        -0.0849
     25 C25         3.5573   -3.4327    0.6460 C.ar      1 <1>        -0.0553
     26 C26         4.3603   -4.5551    0.4912 C.ar      1 <1>         0.0084
     27 O27         5.7063   -4.4141    0.3793 O.3       1 <1>        -0.4249
     28 H28         4.6680   -8.9787    0.1086 H         1 <1>         0.1194
     29 H29         3.3811   -8.3542    1.1679 H         1 <1>         0.0904
     30 H30         3.2262   -8.2120   -0.5997 H         1 <1>         0.0904
     31 H31         1.9763   -6.9568    0.5170 H         1 <1>         0.1282
     32 H32        -0.2930   -5.9730    0.8023 H         1 <1>         0.1566
     33 H33        -0.1811   -2.9123    1.0288 H         1 <1>         0.1251
     34 H34        -2.6055   -2.2939    2.1958 H         1 <1>         0.1253
     35 H35        -2.7680   -2.1572    0.4286 H         1 <1>         0.1253
     36 H36        -5.0836   -1.2273    1.6097 H         1 <1>         0.1251
     37 H37        -6.9035   -3.7010    1.5855 H         1 <1>         0.1570
     38 H38        -6.3248    0.0191    1.8104 H         1 <1>         0.1311
     39 H39        -8.0862    1.7056    2.1020 H         1 <1>         0.1400
     40 H40       -11.0090    1.5421    1.4764 H         1 <1>         0.3597
     41 H41       -12.6743   -3.0192    2.1875 H         1 <1>         0.1194
     42 H42       -11.2528   -3.2449    1.1403 H         1 <1>         0.0904
     43 H43       -11.0858   -3.3750    2.9076 H         1 <1>         0.0904
     44 H44        -9.2996   -3.0816    1.8579 H         1 <1>         0.1287
     45 H45         1.5699   -2.6947    0.8849 H         1 <1>         0.1307
     46 H46         4.0053   -2.4506    0.6808 H         1 <1>         0.1400
     47 H47         6.1758   -4.4372    1.2243 H         1 <1>         0.3597
@<TRIPOS>BOND
     1    1    2 1
     2    1   28 1
     3    1   29 1
     4    1   30 1
     5    2    3 1
     6    3   26 ar
     7    3    4 ar
     8    4    5 ar
     9    4   31 1
    10    5    6 1
    11    5   24 ar
    12    6    7 2
    13    6   32 1
    14    7    8 1
    15    7   33 1
    16    8    9 2
    17    8   10 1
    18   10   11 1
    19   10   34 1
    20   10   35 1
    21   11   12 2
    22   11   13 1
    23   13   14 2
    24   13   36 1
    25   14   15 1
    26   14   37 1
    27   15   23 ar
    28   15   16 ar
    29   16   17 ar
    30   16   38 1
    31   17   18 ar
    32   17   39 1
    33   18   19 1
    34   18   20 ar
    35   19   40 1
    36   20   21 1
    37   20   23 ar
    38   21   22 1
    39   22   41 1
    40   22   42 1
    41   22   43 1
    42   23   44 1
    43   24   25 ar
    44   24   45 1
    45   25   26 ar
    46   25   46 1
    47   26   27 1
    48   27   47 1
@<TRIPOS>Similarity
1.0148
@<TRIPOS>ShapeSim
0.7240
@<TRIPOS>PharmSim
0.2908
# END
# Name:		COC1=C(C=CC(=C1)C=CC(=O)CC(=O)C=CC2=CC(=C(C=C2)O)OC)O
# Created and modified by SHAFTS on Sun Mar 21 16:57:45 2021

# 

@<TRIPOS>MOLECULE
COC1=C(C=CC(=C1)C=CC(=O)CC(=O)C=CC2=CC(=C(C=C2)O)OC)O
   47    48     0
SMALL
USER_CHARGE


@<TRIPOS>ATOM
      1 C1          3.9246   -8.1920    0.2370 C.3       1 <1>         0.0238
      2 O2          4.5779   -6.9219    0.2818 O.3       1 <1>        -0.4127
      3 C3          3.7877   -5.8263    0.4392 C.ar      1 <1>         0.0241
      4 C4          2.4202   -5.9729    0.5530 C.ar      1 <1>        -0.0525
      5 C5          1.6093   -4.8417    0.7151 C.ar      1 <1>        -0.0800
      6 C6          0.1542   -4.9905    0.8373 C.2       1 <1>        -0.0700
      7 C7         -0.6284   -3.8946    0.9939 C.2       1 <1>        -0.0228
      8 C8         -2.0241   -4.0374    1.1112 C.2       1 <1>         0.0759
      9 O9         -2.5270   -5.1424    1.0719 O.2       1 <1>        -0.4599
     10 C10        -2.8939   -2.8192    1.2853 C.3       1 <1>         0.1101
     11 C11        -4.3368   -3.2424    1.3852 C.2       1 <1>         0.0759
     12 O12        -4.6304   -4.4195    1.3211 O.2       1 <1>        -0.4599
     13 C13        -5.3446   -2.2738    1.5527 C.2       1 <1>        -0.0225
     14 C14        -6.6426   -2.6545    1.6425 C.2       1 <1>        -0.0683
     15 C15        -7.6933   -1.6445    1.8172 C.ar      1 <1>        -0.0775
     16 C16        -7.3578   -0.2867    1.8856 C.ar      1 <1>        -0.0833
     17 C17        -8.3461    0.6587    2.0490 C.ar      1 <1>        -0.0550
     18 C18        -9.6755    0.2693    2.1464 C.ar      1 <1>         0.0084
     19 O19       -10.6451    1.2063    2.3070 O.3       1 <1>        -0.4249
     20 C20       -10.0181   -1.0815    2.0792 C.ar      1 <1>         0.0245
     21 O21       -11.3215   -1.4578    2.1747 O.3       1 <1>        -0.4127
     22 C22       -11.6001   -2.8572    2.0980 C.3       1 <1>         0.0238
     23 C23        -9.0355   -2.0357    1.9103 C.ar      1 <1>        -0.0509
     24 C24         2.1915   -3.5690    0.7605 C.ar      1 <1>        -0.0849
     25 C25         3.5573   -3.4327    0.6460 C.ar      1 <1>        -0.0553
     26 C26         4.3603   -4.5551    0.4912 C.ar      1 <1>         0.0084
     27 O27         5.7063   -4.4141    0.3793 O.3       1 <1>        -0.4249
     28 H28         4.6680   -8.9787    0.1086 H         1 <1>         0.1194
     29 H29         3.3811   -8.3542    1.1679 H         1 <1>         0.0904
     30 H30         3.2262   -8.2120   -0.5997 H         1 <1>         0.0904
     31 H31         1.9763   -6.9568    0.5170 H         1 <1>         0.1282
     32 H32        -0.2930   -5.9730    0.8023 H         1 <1>         0.1566
     33 H33        -0.1811   -2.9123    1.0288 H         1 <1>         0.1251
     34 H34        -2.6055   -2.2939    2.1958 H         1 <1>         0.1253
     35 H35        -2.7680   -2.1572    0.4286 H         1 <1>         0.1253
     36 H36        -5.0836   -1.2273    1.6097 H         1 <1>         0.1251
     37 H37        -6.9035   -3.7010    1.5855 H         1 <1>         0.1570
     38 H38        -6.3248    0.0191    1.8104 H         1 <1>         0.1311
     39 H39        -8.0862    1.7056    2.1020 H         1 <1>         0.1400
     40 H40       -11.0090    1.5421    1.4764 H         1 <1>         0.3597
     41 H41       -12.6743   -3.0192    2.1875 H         1 <1>         0.1194
     42 H42       -11.2528   -3.2449    1.1403 H         1 <1>         0.0904
     43 H43       -11.0858   -3.3750    2.9076 H         1 <1>         0.0904
     44 H44        -9.2996   -3.0816    1.8579 H         1 <1>         0.1287
     45 H45         1.5699   -2.6947    0.8849 H         1 <1>         0.1307
     46 H46         4.0053   -2.4506    0.6808 H         1 <1>         0.1400
     47 H47         6.1758   -4.4372    1.2243 H         1 <1>         0.3597
@<TRIPOS>BOND
     1    1    2 1
     2    1   28 1
     3    1   29 1
     4    1   30 1
     5    2    3 1
     6    3   26 ar
     7    3    4 ar
     8    4    5 ar
     9    4   31 1
    10    5    6 1
    11    5   24 ar
    12    6    7 2
    13    6   32 1
    14    7    8 1
    15    7   33 1
    16    8    9 2
    17    8   10 1
    18   10   11 1
    19   10   34 1
    20   10   35 1
    21   11   12 2
    22   11   13 1
    23   13   14 2
    24   13   36 1
    25   14   15 1
    26   14   37 1
    27   15   23 ar
    28   15   16 ar
    29   16   17 ar
    30   16   38 1
    31   17   18 ar
    32   17   39 1
    33   18   19 1
    34   18   20 ar
    35   19   40 1
    36   20   21 1
    37   20   23 ar
    38   21   22 1
    39   22   41 1
    40   22   42 1
    41   22   43 1
    42   23   44 1
    43   24   25 ar
    44   24   45 1
    45   25   26 ar
    46   25   46 1
    47   26   27 1
    48   27   47 1
@<TRIPOS>Similarity
1.0148
@<TRIPOS>ShapeSim
0.7240
@<TRIPOS>PharmSim
0.2908
# END
# Name:		COC1=C(C=CC(=C1)C=CC(=O)CC(=O)C=CC2=CC(=C(C=C2)O)OC)O
# Created and modified by SHAFTS on Sun Mar 21 16:57:45 2021

# 

@<TRIPOS>MOLECULE
COC1=C(C=CC(=C1)C=CC(=O)CC(=O)C=CC2=CC(=C(C=C2)O)OC)O
   47    48     0
SMALL
USER_CHARGE


@<TRIPOS>ATOM
      1 C1          3.9246   -8.1920    0.2370 C.3       1 <1>         0.0238
      2 O2          4.5779   -6.9219    0.2818 O.3       1 <1>        -0.4127
      3 C3          3.7877   -5.8263    0.4392 C.ar      1 <1>         0.0241
      4 C4          2.4202   -5.9729    0.5530 C.ar      1 <1>        -0.0525
      5 C5          1.6093   -4.8417    0.7151 C.ar      1 <1>        -0.0800
      6 C6          0.1542   -4.9905    0.8373 C.2       1 <1>        -0.0700
      7 C7         -0.6284   -3.8946    0.9939 C.2       1 <1>        -0.0228
      8 C8         -2.0241   -4.0374    1.1112 C.2       1 <1>         0.0759
      9 O9         -2.5270   -5.1424    1.0719 O.2       1 <1>        -0.4599
     10 C10        -2.8939   -2.8192    1.2853 C.3       1 <1>         0.1101
     11 C11        -4.3368   -3.2424    1.3852 C.2       1 <1>         0.0759
     12 O12        -4.6304   -4.4195    1.3211 O.2       1 <1>        -0.4599
     13 C13        -5.3446   -2.2738    1.5527 C.2       1 <1>        -0.0225
     14 C14        -6.6426   -2.6545    1.6425 C.2       1 <1>        -0.0683
     15 C15        -7.6933   -1.6445    1.8172 C.ar      1 <1>        -0.0775
     16 C16        -7.3578   -0.2867    1.8856 C.ar      1 <1>        -0.0833
     17 C17        -8.3461    0.6587    2.0490 C.ar      1 <1>        -0.0550
     18 C18        -9.6755    0.2693    2.1464 C.ar      1 <1>         0.0084
     19 O19       -10.6451    1.2063    2.3070 O.3       1 <1>        -0.4249
     20 C20       -10.0181   -1.0815    2.0792 C.ar      1 <1>         0.0245
     21 O21       -11.3215   -1.4578    2.1747 O.3       1 <1>        -0.4127
     22 C22       -11.6001   -2.8572    2.0980 C.3       1 <1>         0.0238
     23 C23        -9.0355   -2.0357    1.9103 C.ar      1 <1>        -0.0509
     24 C24         2.1915   -3.5690    0.7605 C.ar      1 <1>        -0.0849
     25 C25         3.5573   -3.4327    0.6460 C.ar      1 <1>        -0.0553
     26 C26         4.3603   -4.5551    0.4912 C.ar      1 <1>         0.0084
     27 O27         5.7063   -4.4141    0.3793 O.3       1 <1>        -0.4249
     28 H28         4.6680   -8.9787    0.1086 H         1 <1>         0.1194
     29 H29         3.3811   -8.3542    1.1679 H         1 <1>         0.0904
     30 H30         3.2262   -8.2120   -0.5997 H         1 <1>         0.0904
     31 H31         1.9763   -6.9568    0.5170 H         1 <1>         0.1282
     32 H32        -0.2930   -5.9730    0.8023 H         1 <1>         0.1566
     33 H33        -0.1811   -2.9123    1.0288 H         1 <1>         0.1251
     34 H34        -2.6055   -2.2939    2.1958 H         1 <1>         0.1253
     35 H35        -2.7680   -2.1572    0.4286 H         1 <1>         0.1253
     36 H36        -5.0836   -1.2273    1.6097 H         1 <1>         0.1251
     37 H37        -6.9035   -3.7010    1.5855 H         1 <1>         0.1570
     38 H38        -6.3248    0.0191    1.8104 H         1 <1>         0.1311
     39 H39        -8.0862    1.7056    2.1020 H         1 <1>         0.1400
     40 H40       -11.0090    1.5421    1.4764 H         1 <1>         0.3597
     41 H41       -12.6743   -3.0192    2.1875 H         1 <1>         0.1194
     42 H42       -11.2528   -3.2449    1.1403 H         1 <1>         0.0904
     43 H43       -11.0858   -3.3750    2.9076 H         1 <1>         0.0904
     44 H44        -9.2996   -3.0816    1.8579 H         1 <1>         0.1287
     45 H45         1.5699   -2.6947    0.8849 H         1 <1>         0.1307
     46 H46         4.0053   -2.4506    0.6808 H         1 <1>         0.1400
     47 H47         6.1758   -4.4372    1.2243 H         1 <1>         0.3597
@<TRIPOS>BOND
     1    1    2 1
     2    1   28 1
     3    1   29 1
     4    1   30 1
     5    2    3 1
     6    3   26 ar
     7    3    4 ar
     8    4    5 ar
     9    4   31 1
    10    5    6 1
    11    5   24 ar
    12    6    7 2
    13    6   32 1
    14    7    8 1
    15    7   33 1
    16    8    9 2
    17    8   10 1
    18   10   11 1
    19   10   34 1
    20   10   35 1
    21   11   12 2
    22   11   13 1
    23   13   14 2
    24   13   36 1
    25   14   15 1
    26   14   37 1
    27   15   23 ar
    28   15   16 ar
    29   16   17 ar
    30   16   38 1
    31   17   18 ar
    32   17   39 1
    33   18   19 1
    34   18   20 ar
    35   19   40 1
    36   20   21 1
    37   20   23 ar
    38   21   22 1
    39   22   41 1
    40   22   42 1
    41   22   43 1
    42   23   44 1
    43   24   25 ar
    44   24   45 1
    45   25   26 ar
    46   25   46 1
    47   26   27 1
    48   27   47 1
@<TRIPOS>Similarity
1.0148
@<TRIPOS>ShapeSim
0.7240
@<TRIPOS>PharmSim
0.2908
# END
# Name:		O=C(CC(/C=C/C1=CC=C(O)C(OC)=C1)=O)/C=C/C2=CC=C(O)C(OC)=C2
# Created and modified by SHAFTS on Sun Mar 21 16:57:45 2021

# 

@<TRIPOS>MOLECULE
O=C(CC(/C=C/C1=CC=C(O)C(OC)=C1)=O)/C=C/C2=CC=C(O)C(OC)=C2
   47    48     0
SMALL
USER_CHARGE


@<TRIPOS>ATOM
      1 C1          3.9246   -8.1920    0.2370 C.3       1 <1>         0.0238
      2 O2          4.5779   -6.9219    0.2818 O.3       1 <1>        -0.4127
      3 C3          3.7877   -5.8263    0.4392 C.ar      1 <1>         0.0241
      4 C4          2.4202   -5.9729    0.5530 C.ar      1 <1>        -0.0525
      5 C5          1.6093   -4.8417    0.7151 C.ar      1 <1>        -0.0800
      6 C6          0.1542   -4.9905    0.8373 C.2       1 <1>        -0.0700
      7 C7         -0.6284   -3.8946    0.9939 C.2       1 <1>        -0.0228
      8 C8         -2.0241   -4.0374    1.1112 C.2       1 <1>         0.0759
      9 O9         -2.5270   -5.1424    1.0719 O.2       1 <1>        -0.4599
     10 C10        -2.8939   -2.8192    1.2853 C.3       1 <1>         0.1101
     11 C11        -4.3368   -3.2424    1.3852 C.2       1 <1>         0.0759
     12 O12        -4.6304   -4.4195    1.3211 O.2       1 <1>        -0.4599
     13 C13        -5.3446   -2.2738    1.5527 C.2       1 <1>        -0.0225
     14 C14        -6.6426   -2.6545    1.6425 C.2       1 <1>        -0.0683
     15 C15        -7.6933   -1.6445    1.8172 C.ar      1 <1>        -0.0775
     16 C16        -7.3578   -0.2867    1.8856 C.ar      1 <1>        -0.0833
     17 C17        -8.3461    0.6587    2.0490 C.ar      1 <1>        -0.0550
     18 C18        -9.6755    0.2693    2.1464 C.ar      1 <1>         0.0084
     19 O19       -10.6451    1.2063    2.3070 O.3       1 <1>        -0.4249
     20 C20       -10.0181   -1.0815    2.0792 C.ar      1 <1>         0.0245
     21 O21       -11.3215   -1.4578    2.1747 O.3       1 <1>        -0.4127
     22 C22       -11.6001   -2.8572    2.0980 C.3       1 <1>         0.0238
     23 C23        -9.0355   -2.0357    1.9103 C.ar      1 <1>        -0.0509
     24 C24         2.1915   -3.5690    0.7605 C.ar      1 <1>        -0.0849
     25 C25         3.5573   -3.4327    0.6460 C.ar      1 <1>        -0.0553
     26 C26         4.3603   -4.5551    0.4912 C.ar      1 <1>         0.0084
     27 O27         5.7063   -4.4141    0.3793 O.3       1 <1>        -0.4249
     28 H28         4.6680   -8.9787    0.1086 H         1 <1>         0.1194
     29 H29         3.3811   -8.3542    1.1679 H         1 <1>         0.0904
     30 H30         3.2262   -8.2120   -0.5997 H         1 <1>         0.0904
     31 H31         1.9763   -6.9568    0.5170 H         1 <1>         0.1282
     32 H32        -0.2930   -5.9730    0.8023 H         1 <1>         0.1566
     33 H33        -0.1811   -2.9123    1.0288 H         1 <1>         0.1251
     34 H34        -2.6055   -2.2939    2.1958 H         1 <1>         0.1253
     35 H35        -2.7680   -2.1572    0.4286 H         1 <1>         0.1253
     36 H36        -5.0836   -1.2273    1.6097 H         1 <1>         0.1251
     37 H37        -6.9035   -3.7010    1.5855 H         1 <1>         0.1570
     38 H38        -6.3248    0.0191    1.8104 H         1 <1>         0.1311
     39 H39        -8.0862    1.7056    2.1020 H         1 <1>         0.1400
     40 H40       -11.0090    1.5421    1.4764 H         1 <1>         0.3597
     41 H41       -12.6743   -3.0192    2.1875 H         1 <1>         0.1194
     42 H42       -11.2528   -3.2449    1.1403 H         1 <1>         0.0904
     43 H43       -11.0858   -3.3750    2.9076 H         1 <1>         0.0904
     44 H44        -9.2996   -3.0816    1.8579 H         1 <1>         0.1287
     45 H45         1.5699   -2.6947    0.8849 H         1 <1>         0.1307
     46 H46         4.0053   -2.4506    0.6808 H         1 <1>         0.1400
     47 H47         6.1758   -4.4372    1.2243 H         1 <1>         0.3597
@<TRIPOS>BOND
     1    1    2 1
     2    1   28 1
     3    1   29 1
     4    1   30 1
     5    2    3 1
     6    3   26 ar
     7    3    4 ar
     8    4    5 ar
     9    4   31 1
    10    5    6 1
    11    5   24 ar
    12    6    7 2
    13    6   32 1
    14    7    8 1
    15    7   33 1
    16    8    9 2
    17    8   10 1
    18   10   11 1
    19   10   34 1
    20   10   35 1
    21   11   12 2
    22   11   13 1
    23   13   14 2
    24   13   36 1
    25   14   15 1
    26   14   37 1
    27   15   23 ar
    28   15   16 ar
    29   16   17 ar
    30   16   38 1
    31   17   18 ar
    32   17   39 1
    33   18   19 1
    34   18   20 ar
    35   19   40 1
    36   20   21 1
    37   20   23 ar
    38   21   22 1
    39   22   41 1
    40   22   42 1
    41   22   43 1
    42   23   44 1
    43   24   25 ar
    44   24   45 1
    45   25   26 ar
    46   25   46 1
    47   26   27 1
    48   27   47 1
@<TRIPOS>Similarity
1.0148
@<TRIPOS>ShapeSim
0.7240
@<TRIPOS>PharmSim
0.2908
# END
# Name:		O=C(CC(/C=C/C1=CC=C(O)C(OC)=C1)=O)/C=C/C2=CC=C(O)C(OC)=C2
# Created and modified by SHAFTS on Sun Mar 21 16:57:45 2021

# 

@<TRIPOS>MOLECULE
O=C(CC(/C=C/C1=CC=C(O)C(OC)=C1)=O)/C=C/C2=CC=C(O)C(OC)=C2
   47    48     0
SMALL
USER_CHARGE


@<TRIPOS>ATOM
      1 C1          3.9246   -8.1920    0.2370 C.3       1 <1>         0.0238
      2 O2          4.5779   -6.9219    0.2818 O.3       1 <1>        -0.4127
      3 C3          3.7877   -5.8263    0.4392 C.ar      1 <1>         0.0241
      4 C4          2.4202   -5.9729    0.5530 C.ar      1 <1>        -0.0525
      5 C5          1.6093   -4.8417    0.7151 C.ar      1 <1>        -0.0800
      6 C6          0.1542   -4.9905    0.8373 C.2       1 <1>        -0.0700
      7 C7         -0.6284   -3.8946    0.9939 C.2       1 <1>        -0.0228
      8 C8         -2.0241   -4.0374    1.1112 C.2       1 <1>         0.0759
      9 O9         -2.5270   -5.1424    1.0719 O.2       1 <1>        -0.4599
     10 C10        -2.8939   -2.8192    1.2853 C.3       1 <1>         0.1101
     11 C11        -4.3368   -3.2424    1.3852 C.2       1 <1>         0.0759
     12 O12        -4.6304   -4.4195    1.3211 O.2       1 <1>        -0.4599
     13 C13        -5.3446   -2.2738    1.5527 C.2       1 <1>        -0.0225
     14 C14        -6.6426   -2.6545    1.6425 C.2       1 <1>        -0.0683
     15 C15        -7.6933   -1.6445    1.8172 C.ar      1 <1>        -0.0775
     16 C16        -7.3578   -0.2867    1.8856 C.ar      1 <1>        -0.0833
     17 C17        -8.3461    0.6587    2.0490 C.ar      1 <1>        -0.0550
     18 C18        -9.6755    0.2693    2.1464 C.ar      1 <1>         0.0084
     19 O19       -10.6451    1.2063    2.3070 O.3       1 <1>        -0.4249
     20 C20       -10.0181   -1.0815    2.0792 C.ar      1 <1>         0.0245
     21 O21       -11.3215   -1.4578    2.1747 O.3       1 <1>        -0.4127
     22 C22       -11.6001   -2.8572    2.0980 C.3       1 <1>         0.0238
     23 C23        -9.0355   -2.0357    1.9103 C.ar      1 <1>        -0.0509
     24 C24         2.1915   -3.5690    0.7605 C.ar      1 <1>        -0.0849
     25 C25         3.5573   -3.4327    0.6460 C.ar      1 <1>        -0.0553
     26 C26         4.3603   -4.5551    0.4912 C.ar      1 <1>         0.0084
     27 O27         5.7063   -4.4141    0.3793 O.3       1 <1>        -0.4249
     28 H28         4.6680   -8.9787    0.1086 H         1 <1>         0.1194
     29 H29         3.3811   -8.3542    1.1679 H         1 <1>         0.0904
     30 H30         3.2262   -8.2120   -0.5997 H         1 <1>         0.0904
     31 H31         1.9763   -6.9568    0.5170 H         1 <1>         0.1282
     32 H32        -0.2930   -5.9730    0.8023 H         1 <1>         0.1566
     33 H33        -0.1811   -2.9123    1.0288 H         1 <1>         0.1251
     34 H34        -2.6055   -2.2939    2.1958 H         1 <1>         0.1253
     35 H35        -2.7680   -2.1572    0.4286 H         1 <1>         0.1253
     36 H36        -5.0836   -1.2273    1.6097 H         1 <1>         0.1251
     37 H37        -6.9035   -3.7010    1.5855 H         1 <1>         0.1570
     38 H38        -6.3248    0.0191    1.8104 H         1 <1>         0.1311
     39 H39        -8.0862    1.7056    2.1020 H         1 <1>         0.1400
     40 H40       -11.0090    1.5421    1.4764 H         1 <1>         0.3597
     41 H41       -12.6743   -3.0192    2.1875 H         1 <1>         0.1194
     42 H42       -11.2528   -3.2449    1.1403 H         1 <1>         0.0904
     43 H43       -11.0858   -3.3750    2.9076 H         1 <1>         0.0904
     44 H44        -9.2996   -3.0816    1.8579 H         1 <1>         0.1287
     45 H45         1.5699   -2.6947    0.8849 H         1 <1>         0.1307
     46 H46         4.0053   -2.4506    0.6808 H         1 <1>         0.1400
     47 H47         6.1758   -4.4372    1.2243 H         1 <1>         0.3597
@<TRIPOS>BOND
     1    1    2 1
     2    1   28 1
     3    1   29 1
     4    1   30 1
     5    2    3 1
     6    3   26 ar
     7    3    4 ar
     8    4    5 ar
     9    4   31 1
    10    5    6 1
    11    5   24 ar
    12    6    7 2
    13    6   32 1
    14    7    8 1
    15    7   33 1
    16    8    9 2
    17    8   10 1
    18   10   11 1
    19   10   34 1
    20   10   35 1
    21   11   12 2
    22   11   13 1
    23   13   14 2
    24   13   36 1
    25   14   15 1
    26   14   37 1
    27   15   23 ar
    28   15   16 ar
    29   16   17 ar
    30   16   38 1
    31   17   18 ar
    32   17   39 1
    33   18   19 1
    34   18   20 ar
    35   19   40 1
    36   20   21 1
    37   20   23 ar
    38   21   22 1
    39   22   41 1
    40   22   42 1
    41   22   43 1
    42   23   44 1
    43   24   25 ar
    44   24   45 1
    45   25   26 ar
    46   25   46 1
    47   26   27 1
    48   27   47 1
@<TRIPOS>Similarity
1.0148
@<TRIPOS>ShapeSim
0.7240
@<TRIPOS>PharmSim
0.2908
# END
# Name:		CC1CCC(CC1)N2C3=C(C=CN=C3)C4=CN=C(N=C42)NC5=NC6=C(CN(CC6)C(=O)CO)C=C5
# Created and modified by SHAFTS on Sun Mar 21 16:57:45 2021

# 

@<TRIPOS>MOLECULE
CC1CCC(CC1)N2C3=C(C=CN=C3)C4=CN=C(N=C42)NC5=NC6=C(CN(CC6)C(=O)CO)C=C5
   64    69     0
SMALL
USER_CHARGE


@<TRIPOS>ATOM
      1 C1         -9.2152   -4.0242   -2.2404 C.3       1 <1>        -0.0737
      2 C2         -9.8577   -4.2081   -0.8640 C.3       1 <1>        -0.0791
      3 C3         -8.7631   -4.3878    0.1898 C.3       1 <1>        -0.0627
      4 C4         -9.4055   -4.5717    1.5662 C.3       1 <1>        -0.0380
      5 C5        -10.2438   -3.3380    1.9067 C.3       1 <1>        -0.0094
      6 N6         -9.3833   -2.1525    1.9240 N.pl3     1 <1>        -0.3190
      7 C7         -9.8339   -0.8519    2.0689 C.ar      1 <1>         0.0068
      8 C8         -8.7206    0.0068    2.0372 C.ar      1 <1>        -0.0324
      9 C9         -8.9282    1.3796    2.1655 C.ar      1 <1>        -0.0547
     10 C10       -10.2174    1.8438    2.3187 C.ar      1 <1>        -0.0380
     11 N11       -11.2423    1.0101    2.3444 N.ar      1 <1>        -0.3903
     12 C12       -11.0959   -0.2939    2.2275 C.ar      1 <1>         0.0037
     13 C13        -7.5411   -0.8502    1.8620 C.ar      1 <1>         0.0281
     14 C14        -8.0158   -2.1758    1.8047 C.ar      1 <1>         0.0483
     15 N15        -7.1336   -3.1586    1.6478 N.ar      1 <1>        -0.2956
     16 C16        -5.8413   -2.8942    1.5483 C.ar      1 <1>         0.0900
     17 N17        -4.9544   -3.9462    1.3858 N.pl3     1 <1>        -0.2572
     18 C18        -3.6035   -3.6904    1.1679 C.ar      1 <1>         0.0245
     19 C19        -3.2018   -2.4361    0.7210 C.ar      1 <1>        -0.0205
     20 C20        -1.8563   -2.2072    0.5066 C.ar      1 <1>        -0.0724
     21 C21        -0.9507   -3.2384    0.7445 C.ar      1 <1>        -0.0501
     22 C22         0.5084   -2.9725    0.4774 C.3       1 <1>         0.0052
     23 N23         1.3176   -4.0689    1.0209 N.am      1 <1>        -0.3477
     24 C24         2.4478   -3.8291    1.7150 C.2       1 <1>         0.1161
     25 O25         3.0980   -4.7543    2.1533 O.2       1 <1>        -0.4680
     26 C26         2.9036   -2.4114    1.9463 C.3       1 <1>         0.0910
     27 O27         4.1169   -2.4184    2.7012 O.3       1 <1>        -0.4632
     28 C28         0.8446   -5.4417    0.7778 C.3       1 <1>         0.0012
     29 C29        -0.4949   -5.6116    1.4925 C.3       1 <1>         0.0180
     30 C30        -1.4120   -4.4532    1.1953 C.ar      1 <1>        -0.0342
     31 N31        -2.7124   -4.6385    1.3921 N.ar      1 <1>        -0.3680
     32 N32        -5.3644   -1.6568    1.5985 N.ar      1 <1>        -0.3313
     33 C33        -6.1724   -0.6217    1.7562 C.ar      1 <1>         0.0047
     34 C34       -11.3384   -3.1583    0.8529 C.3       1 <1>        -0.0411
     35 C35       -10.6959   -2.9744   -0.5235 C.3       1 <1>        -0.0668
     36 H36        -8.6434   -3.0964   -2.2533 H         1 <1>         0.0294
     37 H37        -8.5508   -4.8634   -2.4463 H         1 <1>         0.0294
     38 H38        -9.9939   -3.9818   -3.0020 H         1 <1>         0.0294
     39 H39       -10.4980   -5.0902   -0.8769 H         1 <1>         0.0469
     40 H40        -8.1659   -5.2668   -0.0529 H         1 <1>         0.0408
     41 H41        -8.1228   -3.5058    0.2027 H         1 <1>         0.0621
     42 H42       -10.0458   -5.4538    1.5533 H         1 <1>         0.0647
     43 H43        -8.6257   -4.6998    2.3169 H         1 <1>         0.0719
     44 H44       -10.7015   -3.4691    2.8872 H         1 <1>         0.1204
     45 H45        -8.0949    2.0663    2.1457 H         1 <1>         0.1392
     46 H46       -10.3922    2.9048    2.4196 H         1 <1>         0.1945
     47 H47       -11.9649   -0.9346    2.2542 H         1 <1>         0.2144
     48 H48        -5.2748   -4.8609    1.4238 H         1 <1>         0.3642
     49 H49        -3.9277   -1.6562    0.5447 H         1 <1>         0.1679
     50 H50        -1.5122   -1.2441    0.1597 H         1 <1>         0.1429
     51 H51         0.6729   -2.8985   -0.5976 H         1 <1>         0.1267
     52 H52         0.7996   -2.0361    0.9536 H         1 <1>         0.1267
     53 H53         3.0754   -1.9239    0.9867 H         1 <1>         0.1330
     54 H54         2.1358   -1.8683    2.4974 H         1 <1>         0.1330
     55 H55         4.4690   -1.5373    2.8877 H         1 <1>         0.3367
     56 H56         0.7145   -5.6027   -0.2924 H         1 <1>         0.1106
     57 H57         1.5668   -6.1559    1.1736 H         1 <1>         0.1322
     58 H58        -0.9652   -6.5362    1.1576 H         1 <1>         0.1021
     59 H59        -0.3233   -5.6665    2.5674 H         1 <1>         0.0949
     60 H60        -5.7779    0.3829    1.7961 H         1 <1>         0.2514
     61 H61       -11.9787   -4.0403    0.8401 H         1 <1>         0.0675
     62 H62       -11.9355   -2.2793    1.0956 H         1 <1>         0.0532
     63 H63       -10.0557   -2.0923   -0.5106 H         1 <1>         0.0414
     64 H64       -11.4758   -2.8464   -1.2742 H         1 <1>         0.0485
@<TRIPOS>BOND
     1    1    2 1
     2    1   36 1
     3    1   37 1
     4    1   38 1
     5    2   35 1
     6    2    3 1
     7    2   39 1
     8    3    4 1
     9    3   40 1
    10    3   41 1
    11    4    5 1
    12    4   42 1
    13    4   43 1
    14    5    6 1
    15    5   34 1
    16    5   44 1
    17    6   14 1
    18    6    7 1
    19    7   12 ar
    20    7    8 ar
    21    8    9 ar
    22    8   13 1
    23    9   10 ar
    24    9   45 1
    25   10   11 ar
    26   10   46 1
    27   11   12 ar
    28   12   47 1
    29   13   33 ar
    30   13   14 ar
    31   14   15 ar
    32   15   16 ar
    33   16   17 1
    34   16   32 ar
    35   17   18 1
    36   17   48 1
    37   18   31 ar
    38   18   19 ar
    39   19   20 ar
    40   19   49 1
    41   20   21 ar
    42   20   50 1
    43   21   30 ar
    44   21   22 1
    45   22   23 1
    46   22   51 1
    47   22   52 1
    48   23   24 am
    49   23   28 1
    50   24   25 2
    51   24   26 1
    52   26   27 1
    53   26   53 1
    54   26   54 1
    55   27   55 1
    56   28   29 1
    57   28   56 1
    58   28   57 1
    59   29   30 1
    60   29   58 1
    61   29   59 1
    62   30   31 ar
    63   32   33 ar
    64   33   60 1
    65   34   35 1
    66   34   61 1
    67   34   62 1
    68   35   63 1
    69   35   64 1
@<TRIPOS>Similarity
1.0144
@<TRIPOS>ShapeSim
0.6871
@<TRIPOS>PharmSim
0.3274
# END
# Name:		CC1CCC(CC1)N2C3=C(C=CN=C3)C4=CN=C(N=C42)NC5=NC6=C(CN(CC6)C(=O)CO)C=C5
# Created and modified by SHAFTS on Sun Mar 21 16:57:45 2021

# 

@<TRIPOS>MOLECULE
CC1CCC(CC1)N2C3=C(C=CN=C3)C4=CN=C(N=C42)NC5=NC6=C(CN(CC6)C(=O)CO)C=C5
   64    69     0
SMALL
USER_CHARGE


@<TRIPOS>ATOM
      1 C1         -9.2152   -4.0242   -2.2404 C.3       1 <1>        -0.0737
      2 C2         -9.8577   -4.2081   -0.8640 C.3       1 <1>        -0.0791
      3 C3         -8.7631   -4.3878    0.1898 C.3       1 <1>        -0.0627
      4 C4         -9.4055   -4.5717    1.5662 C.3       1 <1>        -0.0380
      5 C5        -10.2438   -3.3380    1.9067 C.3       1 <1>        -0.0094
      6 N6         -9.3833   -2.1525    1.9240 N.pl3     1 <1>        -0.3190
      7 C7         -9.8339   -0.8519    2.0689 C.ar      1 <1>         0.0068
      8 C8         -8.7206    0.0068    2.0372 C.ar      1 <1>        -0.0324
      9 C9         -8.9282    1.3796    2.1655 C.ar      1 <1>        -0.0547
     10 C10       -10.2174    1.8438    2.3187 C.ar      1 <1>        -0.0380
     11 N11       -11.2423    1.0101    2.3444 N.ar      1 <1>        -0.3903
     12 C12       -11.0959   -0.2939    2.2275 C.ar      1 <1>         0.0037
     13 C13        -7.5411   -0.8502    1.8620 C.ar      1 <1>         0.0281
     14 C14        -8.0158   -2.1758    1.8047 C.ar      1 <1>         0.0483
     15 N15        -7.1336   -3.1586    1.6478 N.ar      1 <1>        -0.2956
     16 C16        -5.8413   -2.8942    1.5483 C.ar      1 <1>         0.0900
     17 N17        -4.9544   -3.9462    1.3858 N.pl3     1 <1>        -0.2572
     18 C18        -3.6035   -3.6904    1.1679 C.ar      1 <1>         0.0245
     19 C19        -3.2018   -2.4361    0.7210 C.ar      1 <1>        -0.0205
     20 C20        -1.8563   -2.2072    0.5066 C.ar      1 <1>        -0.0724
     21 C21        -0.9507   -3.2384    0.7445 C.ar      1 <1>        -0.0501
     22 C22         0.5084   -2.9725    0.4774 C.3       1 <1>         0.0052
     23 N23         1.3176   -4.0689    1.0209 N.am      1 <1>        -0.3477
     24 C24         2.4478   -3.8291    1.7150 C.2       1 <1>         0.1161
     25 O25         3.0980   -4.7543    2.1533 O.2       1 <1>        -0.4680
     26 C26         2.9036   -2.4114    1.9463 C.3       1 <1>         0.0910
     27 O27         4.1169   -2.4184    2.7012 O.3       1 <1>        -0.4632
     28 C28         0.8446   -5.4417    0.7778 C.3       1 <1>         0.0012
     29 C29        -0.4949   -5.6116    1.4925 C.3       1 <1>         0.0180
     30 C30        -1.4120   -4.4532    1.1953 C.ar      1 <1>        -0.0342
     31 N31        -2.7124   -4.6385    1.3921 N.ar      1 <1>        -0.3680
     32 N32        -5.3644   -1.6568    1.5985 N.ar      1 <1>        -0.3313
     33 C33        -6.1724   -0.6217    1.7562 C.ar      1 <1>         0.0047
     34 C34       -11.3384   -3.1583    0.8529 C.3       1 <1>        -0.0411
     35 C35       -10.6959   -2.9744   -0.5235 C.3       1 <1>        -0.0668
     36 H36        -8.6434   -3.0964   -2.2533 H         1 <1>         0.0294
     37 H37        -8.5508   -4.8634   -2.4463 H         1 <1>         0.0294
     38 H38        -9.9939   -3.9818   -3.0020 H         1 <1>         0.0294
     39 H39       -10.4980   -5.0902   -0.8769 H         1 <1>         0.0469
     40 H40        -8.1659   -5.2668   -0.0529 H         1 <1>         0.0408
     41 H41        -8.1228   -3.5058    0.2027 H         1 <1>         0.0621
     42 H42       -10.0458   -5.4538    1.5533 H         1 <1>         0.0647
     43 H43        -8.6257   -4.6998    2.3169 H         1 <1>         0.0719
     44 H44       -10.7015   -3.4691    2.8872 H         1 <1>         0.1204
     45 H45        -8.0949    2.0663    2.1457 H         1 <1>         0.1392
     46 H46       -10.3922    2.9048    2.4196 H         1 <1>         0.1945
     47 H47       -11.9649   -0.9346    2.2542 H         1 <1>         0.2144
     48 H48        -5.2748   -4.8609    1.4238 H         1 <1>         0.3642
     49 H49        -3.9277   -1.6562    0.5447 H         1 <1>         0.1679
     50 H50        -1.5122   -1.2441    0.1597 H         1 <1>         0.1429
     51 H51         0.6729   -2.8985   -0.5976 H         1 <1>         0.1267
     52 H52         0.7996   -2.0361    0.9536 H         1 <1>         0.1267
     53 H53         3.0754   -1.9239    0.9867 H         1 <1>         0.1330
     54 H54         2.1358   -1.8683    2.4974 H         1 <1>         0.1330
     55 H55         4.4690   -1.5373    2.8877 H         1 <1>         0.3367
     56 H56         0.7145   -5.6027   -0.2924 H         1 <1>         0.1106
     57 H57         1.5668   -6.1559    1.1736 H         1 <1>         0.1322
     58 H58        -0.9652   -6.5362    1.1576 H         1 <1>         0.1021
     59 H59        -0.3233   -5.6665    2.5674 H         1 <1>         0.0949
     60 H60        -5.7779    0.3829    1.7961 H         1 <1>         0.2514
     61 H61       -11.9787   -4.0403    0.8401 H         1 <1>         0.0675
     62 H62       -11.9355   -2.2793    1.0956 H         1 <1>         0.0532
     63 H63       -10.0557   -2.0923   -0.5106 H         1 <1>         0.0414
     64 H64       -11.4758   -2.8464   -1.2742 H         1 <1>         0.0485
@<TRIPOS>BOND
     1    1    2 1
     2    1   36 1
     3    1   37 1
     4    1   38 1
     5    2   35 1
     6    2    3 1
     7    2   39 1
     8    3    4 1
     9    3   40 1
    10    3   41 1
    11    4    5 1
    12    4   42 1
    13    4   43 1
    14    5    6 1
    15    5   34 1
    16    5   44 1
    17    6   14 1
    18    6    7 1
    19    7   12 ar
    20    7    8 ar
    21    8    9 ar
    22    8   13 1
    23    9   10 ar
    24    9   45 1
    25   10   11 ar
    26   10   46 1
    27   11   12 ar
    28   12   47 1
    29   13   33 ar
    30   13   14 ar
    31   14   15 ar
    32   15   16 ar
    33   16   17 1
    34   16   32 ar
    35   17   18 1
    36   17   48 1
    37   18   31 ar
    38   18   19 ar
    39   19   20 ar
    40   19   49 1
    41   20   21 ar
    42   20   50 1
    43   21   30 ar
    44   21   22 1
    45   22   23 1
    46   22   51 1
    47   22   52 1
    48   23   24 am
    49   23   28 1
    50   24   25 2
    51   24   26 1
    52   26   27 1
    53   26   53 1
    54   26   54 1
    55   27   55 1
    56   28   29 1
    57   28   56 1
    58   28   57 1
    59   29   30 1
    60   29   58 1
    61   29   59 1
    62   30   31 ar
    63   32   33 ar
    64   33   60 1
    65   34   35 1
    66   34   61 1
    67   34   62 1
    68   35   63 1
    69   35   64 1
@<TRIPOS>Similarity
1.0144
@<TRIPOS>ShapeSim
0.6871
@<TRIPOS>PharmSim
0.3274
# END
# Name:		CC(C)C1=CC=C(C=C1)NC(=O)CSC2=NN=NN2C3=CC=C(C=C3)N(C)C
# Created and modified by SHAFTS on Sun Mar 21 16:57:45 2021

# 

@<TRIPOS>MOLECULE
CC(C)C1=CC=C(C=C1)NC(=O)CSC2=NN=NN2C3=CC=C(C=C3)N(C)C
   52    54     0
SMALL
USER_CHARGE


@<TRIPOS>ATOM
      1 C1          5.4137   -0.4535    0.6134 C.3       1 <1>        -0.0632
      2 C2          5.6536   -1.9158    0.9943 C.3       1 <1>        -0.0578
      3 C3          6.2279   -1.9863    2.4107 C.3       1 <1>        -0.0632
      4 C4          4.3493   -2.6688    0.9429 C.ar      1 <1>        -0.1137
      5 C5          3.2945   -2.2772    1.7468 C.ar      1 <1>        -0.0908
      6 C6          2.0977   -2.9650    1.7021 C.ar      1 <1>        -0.0652
      7 C7          1.9543   -4.0510    0.8485 C.ar      1 <1>        -0.0524
      8 N8          0.7429   -4.7498    0.8005 N.am      1 <1>        -0.3082
      9 C9         -0.4219   -4.0911    0.9602 C.2       1 <1>         0.1135
     10 O10        -0.4268   -2.8818    1.0545 O.2       1 <1>        -0.4671
     11 C11        -1.7184   -4.8568    1.0218 C.3       1 <1>         0.1440
     12 S12        -3.0930   -3.6995    1.2397 S.3       1 <1>        -0.0145
     13 C13        -4.4428   -4.8314    1.2778 C.2       1 <1>         0.1487
     14 N14        -4.3686   -6.1411    1.1751 N.2       1 <1>        -0.2160
     15 N15        -5.5392   -6.6647    1.2425 N.2       1 <1>        -0.1323
     16 N16        -6.4335   -5.7483    1.3904 N.2       1 <1>        -0.1437
     17 N17        -5.7544   -4.5178    1.4244 N.pl3     1 <1>        -0.2048
     18 C18        -6.3140   -3.2389    1.5707 C.ar      1 <1>         0.0055
     19 C19        -5.6290   -2.2580    2.2751 C.ar      1 <1>        -0.0510
     20 C20        -6.1790   -1.0003    2.4192 C.ar      1 <1>        -0.0533
     21 C21        -7.4178   -0.7156    1.8587 C.ar      1 <1>        -0.0625
     22 N22        -7.9750    0.5582    2.0040 N.pl3     1 <1>        -0.4209
     23 C23        -7.2458    1.5977    2.7348 C.3       1 <1>        -0.0337
     24 C24        -9.2880    0.8538    1.4253 C.3       1 <1>        -0.0348
     25 C25        -8.1026   -1.6972    1.1536 C.ar      1 <1>        -0.0524
     26 C26        -7.5497   -2.9534    1.0058 C.ar      1 <1>        -0.0484
     27 C27         3.0153   -4.4415    0.0422 C.ar      1 <1>        -0.0714
     28 C28         4.2078   -3.7464    0.0880 C.ar      1 <1>        -0.0955
     29 H29         6.3572    0.0911    0.6504 H         1 <1>         0.0372
     30 H30         5.0047   -0.4033   -0.3957 H         1 <1>         0.0372
     31 H31         4.7085   -0.0066    1.3141 H         1 <1>         0.0372
     32 H32         6.3589   -2.3628    0.2936 H         1 <1>         0.0667
     33 H33         5.5226   -1.5394    3.1113 H         1 <1>         0.0372
     34 H34         6.3988   -3.0281    2.6819 H         1 <1>         0.0372
     35 H35         7.1714   -1.4417    2.4477 H         1 <1>         0.0372
     36 H36         3.4067   -1.4325    2.4105 H         1 <1>         0.1267
     37 H37         1.2745   -2.6591    2.3307 H         1 <1>         0.1338
     38 H38         0.7416   -5.7084    0.6523 H         1 <1>         0.3319
     39 H39        -1.8558   -5.4137    0.0949 H         1 <1>         0.1493
     40 H40        -1.6910   -5.5507    1.8619 H         1 <1>         0.1493
     41 H41        -4.6659   -2.4793    2.7108 H         1 <1>         0.1492
     42 H42        -5.6464   -0.2375    2.9679 H         1 <1>         0.1303
     43 H43        -6.6129    2.1527    2.0423 H         1 <1>         0.0865
     44 H44        -7.9563    2.2787    3.2034 H         1 <1>         0.0937
     45 H45        -6.6256    1.1349    3.5025 H         1 <1>         0.0937
     46 H46        -9.7135   -0.0577    1.0056 H         1 <1>         0.0986
     47 H47        -9.9487    1.2392    2.2018 H         1 <1>         0.0843
     48 H48        -9.1786    1.5997    0.6382 H         1 <1>         0.0843
     49 H49        -9.0659   -1.4765    0.7180 H         1 <1>         0.1286
     50 H50        -8.0819   -3.7165    0.4573 H         1 <1>         0.1538
     51 H51         2.9068   -5.2856   -0.6228 H         1 <1>         0.1261
     52 H52         5.0334   -4.0496   -0.5389 H         1 <1>         0.1254
@<TRIPOS>BOND
     1    1    2 1
     2    1   29 1
     3    1   30 1
     4    1   31 1
     5    2    3 1
     6    2    4 1
     7    2   32 1
     8    3   33 1
     9    3   34 1
    10    3   35 1
    11    4   28 ar
    12    4    5 ar
    13    5    6 ar
    14    5   36 1
    15    6    7 ar
    16    6   37 1
    17    7    8 1
    18    7   27 ar
    19    8    9 am
    20    8   38 1
    21    9   10 2
    22    9   11 1
    23   11   12 1
    24   11   39 1
    25   11   40 1
    26   12   13 1
    27   13   17 1
    28   13   14 2
    29   14   15 1
    30   15   16 2
    31   16   17 1
    32   17   18 1
    33   18   26 ar
    34   18   19 ar
    35   19   20 ar
    36   19   41 1
    37   20   21 ar
    38   20   42 1
    39   21   22 1
    40   21   25 ar
    41   22   23 1
    42   22   24 1
    43   23   43 1
    44   23   44 1
    45   23   45 1
    46   24   46 1
    47   24   47 1
    48   24   48 1
    49   25   26 ar
    50   25   49 1
    51   26   50 1
    52   27   28 ar
    53   27   51 1
    54   28   52 1
@<TRIPOS>Similarity
1.0142
@<TRIPOS>ShapeSim
0.7138
@<TRIPOS>PharmSim
0.3004
# END
# Name:		CC(C)(OC1=CC=C(Cl)C=C1)C(OCC)=O
# Created and modified by SHAFTS on Sun Mar 21 16:57:45 2021

# 

@<TRIPOS>MOLECULE
CC(C)(OC1=CC=C(Cl)C=C1)C(OCC)=O
   31    31     0
SMALL
USER_CHARGE


@<TRIPOS>ATOM
      1 C1          0.1226   -3.7939    0.5842 C.3       1 <1>        -0.0328
      2 C2         -1.3617   -3.6860    0.2293 C.3       1 <1>         0.0238
      3 O3         -2.1285   -4.5808    1.0777 O.3       1 <1>        -0.3596
      4 C4         -3.4577   -4.6062    0.8924 C.2       1 <1>         0.1817
      5 O5         -3.9637   -3.9042    0.0493 O.2       1 <1>        -0.4441
      6 C6         -4.3189   -5.5107    1.7360 C.3       1 <1>         0.1252
      7 C7         -3.8887   -6.9641    1.5280 C.3       1 <1>         0.0019
      8 C8         -4.1584   -5.1373    3.2110 C.3       1 <1>        -0.0045
      9 O9         -5.6871   -5.3593    1.3524 O.3       1 <1>        -0.3735
     10 C10        -6.2350   -4.1236    1.4955 C.ar      1 <1>         0.0080
     11 C11        -5.4402   -3.0510    1.8723 C.ar      1 <1>        -0.0584
     12 C12        -5.9989   -1.7959    2.0173 C.ar      1 <1>        -0.0744
     13 C13        -7.3504   -1.6084    1.7873 C.ar      1 <1>        -0.0185
     14 Cl14       -8.0503   -0.0304    1.9707 Cl        1 <1>        -0.1530
     15 C15        -8.1447   -2.6770    1.4109 C.ar      1 <1>        -0.0647
     16 C16        -7.5886   -3.9326    1.2594 C.ar      1 <1>        -0.0459
     17 H17         0.6982   -3.1221   -0.0526 H         1 <1>         0.0585
     18 H18         0.2675   -3.5174    1.6286 H         1 <1>         0.0514
     19 H19         0.4596   -4.8188    0.4296 H         1 <1>         0.0514
     20 H20        -1.6988   -2.6610    0.3840 H         1 <1>         0.1009
     21 H21        -1.5066   -3.9623   -0.8150 H         1 <1>         0.1009
     22 H22        -2.8240   -7.0618    1.7399 H         1 <1>         0.0740
     23 H23        -4.4537   -7.6100    2.2002 H         1 <1>         0.0740
     24 H24        -4.0819   -7.2561    0.4958 H         1 <1>         0.0668
     25 H25        -4.6524   -4.1844    3.4005 H         1 <1>         0.0540
     26 H26        -4.6100   -5.9105    3.8327 H         1 <1>         0.0611
     27 H27        -3.0987   -5.0513    3.4508 H         1 <1>         0.0611
     28 H28        -4.3854   -3.1969    2.0526 H         1 <1>         0.1188
     29 H29        -5.3805   -0.9604    2.3106 H         1 <1>         0.1336
     30 H30        -9.1993   -2.5288    1.2315 H         1 <1>         0.1434
     31 H31        -8.2088   -4.7664    0.9655 H         1 <1>         0.1391
@<TRIPOS>BOND
     1    1    2 1
     2    1   17 1
     3    1   18 1
     4    1   19 1
     5    2    3 1
     6    2   20 1
     7    2   21 1
     8    3    4 1
     9    4    5 2
    10    4    6 1
    11    6    7 1
    12    6    8 1
    13    6    9 1
    14    7   22 1
    15    7   23 1
    16    7   24 1
    17    8   25 1
    18    8   26 1
    19    8   27 1
    20    9   10 1
    21   10   16 ar
    22   10   11 ar
    23   11   12 ar
    24   11   28 1
    25   12   13 ar
    26   12   29 1
    27   13   14 1
    28   13   15 ar
    29   15   16 ar
    30   15   30 1
    31   16   31 1
@<TRIPOS>Similarity
1.0134
@<TRIPOS>ShapeSim
0.6478
@<TRIPOS>PharmSim
0.3656
# END
# Name:		NCCCNC1=NC(C2=CC=CC=C2Br)=CC3=NC=CC=C31
# Created and modified by SHAFTS on Sun Mar 21 16:57:45 2021

# 

@<TRIPOS>MOLECULE
NCCCNC1=NC(C2=CC=CC=C2Br)=CC3=NC=CC=C31
   40    42     0
SMALL
USER_CHARGE


@<TRIPOS>ATOM
      1 N1         -1.9459    3.9376    1.7218 N.4       1 <1>         0.4447
      2 H2         -2.4187    4.4250    0.9755 H         1 <1>         0.1474
      3 H3         -0.9504    4.0798    1.6388 H         1 <1>         0.1474
      4 H4         -2.2635    4.2943    2.6107 H         1 <1>         0.1474
      5 C5         -2.2443    2.5018    1.6354 C.3       1 <1>        -0.1144
      6 C6         -3.7538    2.2863    1.7614 C.3       1 <1>        -0.0559
      7 C7         -4.0646    0.7909    1.6714 C.3       1 <1>        -0.0358
      8 N8         -5.5100    0.5844    1.7920 N.pl3     1 <1>        -0.3731
      9 C9         -6.0326   -0.6952    1.7393 C.ar      1 <1>         0.0133
     10 C10        -7.4269   -0.8939    1.8498 C.ar      1 <1>         0.0199
     11 C11        -8.3185    0.1760    2.0137 C.ar      1 <1>        -0.0681
     12 C12        -9.6538   -0.1072    2.1119 C.ar      1 <1>        -0.0617
     13 C13       -10.0922   -1.4266    2.0487 C.ar      1 <1>        -0.0275
     14 N14        -9.2542   -2.4258    1.8954 N.ar      1 <1>        -0.3834
     15 C15        -7.9407   -2.2148    1.7927 C.ar      1 <1>        -0.0083
     16 C16        -7.0297   -3.2734    1.6276 C.ar      1 <1>        -0.0118
     17 C17        -5.6823   -2.9832    1.5275 C.ar      1 <1>         0.0016
     18 C18        -4.7148   -4.0934    1.3529 C.ar      1 <1>        -0.0138
     19 C19        -5.1659   -5.4103    1.2854 C.ar      1 <1>        -0.0667
     20 C20        -4.2610   -6.4397    1.1229 C.ar      1 <1>        -0.0882
     21 C21        -2.9084   -6.1669    1.0268 C.ar      1 <1>        -0.0903
     22 C22        -2.4539   -4.8622    1.0933 C.ar      1 <1>        -0.0733
     23 C23        -3.3502   -3.8234    1.2496 C.ar      1 <1>        -0.0104
     24 Br24       -2.7276   -2.0401    1.3405 Br        1 <1>        -0.0885
     25 N25        -5.2301   -1.7290    1.5805 N.ar      1 <1>        -0.3509
     26 H26        -1.9011    2.1166    0.6753 H         1 <1>         0.0912
     27 H27        -1.7336    1.9753    2.4417 H         1 <1>         0.0912
     28 H28        -4.0970    2.6715    2.7216 H         1 <1>         0.0701
     29 H29        -4.2646    2.8127    0.9551 H         1 <1>         0.0701
     30 H30        -3.7215    0.4056    0.7112 H         1 <1>         0.1038
     31 H31        -3.5539    0.2644    2.4777 H         1 <1>         0.1038
     32 H32        -6.1005    1.3451    1.9088 H         1 <1>         0.3010
     33 H33        -7.9615    1.1942    2.0616 H         1 <1>         0.1376
     34 H34       -10.3676    0.6933    2.2388 H         1 <1>         0.1250
     35 H35       -11.1490   -1.6340    2.1281 H         1 <1>         0.2228
     36 H36        -7.3769   -4.2949    1.5803 H         1 <1>         0.1479
     37 H37        -6.2217   -5.6249    1.3607 H         1 <1>         0.1406
     38 H38        -4.6098   -7.4605    1.0709 H         1 <1>         0.1345
     39 H39        -2.2043   -6.9759    0.8996 H         1 <1>         0.1340
     40 H40        -1.3965   -4.6552    1.0180 H         1 <1>         0.1370
@<TRIPOS>BOND
     1    1    2 1
     2    1    3 1
     3    1    4 1
     4    1    5 1
     5    5    6 1
     6    5   26 1
     7    5   27 1
     8    6    7 1
     9    6   28 1
    10    6   29 1
    11    7    8 1
    12    7   30 1
    13    7   31 1
    14    8    9 1
    15    8   32 1
    16    9   25 ar
    17    9   10 ar
    18   10   15 ar
    19   10   11 ar
    20   11   12 ar
    21   11   33 1
    22   12   13 ar
    23   12   34 1
    24   13   14 ar
    25   13   35 1
    26   14   15 ar
    27   15   16 ar
    28   16   17 ar
    29   16   36 1
    30   17   18 1
    31   17   25 ar
    32   18   23 ar
    33   18   19 ar
    34   19   20 ar
    35   19   37 1
    36   20   21 ar
    37   20   38 1
    38   21   22 ar
    39   21   39 1
    40   22   23 ar
    41   22   40 1
    42   23   24 1
@<TRIPOS>Similarity
1.0131
@<TRIPOS>ShapeSim
0.6421
@<TRIPOS>PharmSim
0.3710
# END
# Name:		O=C(NC(S1)=NC=C1CC2=CC=C(F)C(F)=C2)CCC(N3)=NC4=CC=CC=C4C3=O
# Created and modified by SHAFTS on Sun Mar 21 16:57:45 2021

# 

@<TRIPOS>MOLECULE
O=C(NC(S1)=NC=C1CC2=CC=C(F)C(F)=C2)CCC(N3)=NC4=CC=CC=C4C3=O
   46    49     0
SMALL
USER_CHARGE


@<TRIPOS>ATOM
      1 O1         -2.0052   -4.8045    1.0494 O.2       1 <1>        -0.4532
      2 C2         -2.0047   -3.5954    1.1451 C.2       1 <1>         0.1110
      3 C3         -3.3042   -2.8532    1.3224 C.3       1 <1>         0.0806
      4 C4         -4.4628   -3.8522    1.3489 C.3       1 <1>         0.0586
      5 C5         -5.7622   -3.1099    1.5262 C.2       1 <1>         0.0194
      6 N6         -5.7242   -1.8155    1.6199 N.2       1 <1>        -0.3670
      7 C7         -6.8532   -1.0806    1.7802 C.ar      1 <1>        -0.0128
      8 C8         -6.8132    0.3112    1.8806 C.ar      1 <1>        -0.0526
      9 C9         -7.9845    1.0172    2.0423 C.ar      1 <1>        -0.0835
     10 C10        -9.2068    0.3620    2.1069 C.ar      1 <1>        -0.0908
     11 C11        -9.2719   -1.0112    2.0107 C.ar      1 <1>        -0.0649
     12 C12        -8.0987   -1.7440    1.8464 C.ar      1 <1>         0.0476
     13 C13        -8.1064   -3.2105    1.7384 C.2       1 <1>         0.1251
     14 O14        -9.1452   -3.8430    1.7884 O.2       1 <1>        -0.4676
     15 N15        -6.9138   -3.8292    1.5742 N.am      1 <1>        -0.2641
     16 N16        -0.8416   -2.9161    1.0986 N.am      1 <1>        -0.2678
     17 C17         0.3575   -3.6012    0.9408 C.2       1 <1>         0.0778
     18 N18         0.4679   -4.8874    0.8237 N.2       1 <1>        -0.3654
     19 C19         1.6872   -5.3719    0.6802 C.2       1 <1>        -0.0331
     20 C20         2.6531   -4.4512    0.6760 C.2       1 <1>        -0.0095
     21 C21         4.1291   -4.7175    0.5288 C.3       1 <1>        -0.0041
     22 C22         4.5018   -4.6876   -0.9311 C.ar      1 <1>        -0.0832
     23 C23         4.4472   -5.8471   -1.6813 C.ar      1 <1>        -0.0798
     24 C24         4.7886   -5.8223   -3.0208 C.ar      1 <1>        -0.0344
     25 C25         5.1850   -4.6357   -3.6118 C.ar      1 <1>         0.1165
     26 F26         5.5184   -4.6104   -4.9208 F         1 <1>        -0.2605
     27 C27         5.2394   -3.4721   -2.8591 C.ar      1 <1>         0.1174
     28 F28         5.6262   -2.3122   -3.4340 F         1 <1>        -0.2604
     29 C29         4.8924   -3.4993   -1.5199 C.ar      1 <1>        -0.0314
     30 S30         1.9008   -2.8695    0.8654 S.3       1 <1>        -0.0375
     31 H31        -3.2810   -2.2988    2.2607 H         1 <1>         0.1159
     32 H32        -3.4421   -2.1589    0.4935 H         1 <1>         0.1159
     33 H33        -4.4860   -4.4065    0.4107 H         1 <1>         0.1205
     34 H34        -4.3248   -4.5465    2.1777 H         1 <1>         0.1205
     35 H35        -5.8683    0.8317    1.8320 H         1 <1>         0.1434
     36 H36        -7.9517    2.0939    2.1201 H         1 <1>         0.1403
     37 H37       -10.1144    0.9334    2.2341 H         1 <1>         0.1196
     38 H38       -10.2256   -1.5154    2.0622 H         1 <1>         0.1464
     39 H39        -6.8802   -4.7956    1.4989 H         1 <1>         0.3459
     40 H40        -0.8413   -1.9491    1.1751 H         1 <1>         0.3425
     41 H41         1.8870   -6.4281    0.5752 H         1 <1>         0.2085
     42 H42         4.6915   -3.9517    1.0630 H         1 <1>         0.0962
     43 H43         4.3647   -5.6973    0.9440 H         1 <1>         0.1107
     44 H44         4.1378   -6.7737   -1.2206 H         1 <1>         0.1378
     45 H45         4.7462   -6.7292   -3.6058 H         1 <1>         0.1470
     46 H46         4.9339   -2.5937   -0.9328 H         1 <1>         0.1482
@<TRIPOS>BOND
     1    1    2 2
     2    2    3 1
     3    2   16 am
     4    3    4 1
     5    3   31 1
     6    3   32 1
     7    4    5 1
     8    4   33 1
     9    4   34 1
    10    5   15 1
    11    5    6 2
    12    6    7 1
    13    7   12 ar
    14    7    8 ar
    15    8    9 ar
    16    8   35 1
    17    9   10 ar
    18    9   36 1
    19   10   11 ar
    20   10   37 1
    21   11   12 ar
    22   11   38 1
    23   12   13 1
    24   13   14 2
    25   13   15 am
    26   15   39 1
    27   16   17 1
    28   16   40 1
    29   17   30 1
    30   17   18 2
    31   18   19 1
    32   19   20 2
    33   19   41 1
    34   20   21 1
    35   20   30 1
    36   21   22 1
    37   21   42 1
    38   21   43 1
    39   22   29 ar
    40   22   23 ar
    41   23   24 ar
    42   23   44 1
    43   24   25 ar
    44   24   45 1
    45   25   26 1
    46   25   27 ar
    47   27   28 1
    48   27   29 ar
    49   29   46 1
@<TRIPOS>Similarity
1.0129
@<TRIPOS>ShapeSim
0.7395
@<TRIPOS>PharmSim
0.2734
# END
# Name:		C1=CC=C2C(=C1)C(=CC3=CC=CC=N3)C(=O)N2
# Created and modified by SHAFTS on Sun Mar 21 16:57:45 2021

# 

@<TRIPOS>MOLECULE
C1=CC=C2C(=C1)C(=CC3=CC=CC=N3)C(=O)N2
   27    29     0
SMALL
USER_CHARGE


@<TRIPOS>ATOM
      1 O1         -2.2269   -4.4079    1.1008 O.2       1 <1>        -0.4196
      2 C2         -3.2781   -3.8140    1.2516 C.2       1 <1>         0.1433
      3 N3         -4.5072   -4.3162    1.0444 N.am      1 <1>        -0.2996
      4 C4         -5.4933   -3.3725    1.3100 C.ar      1 <1>        -0.0467
      5 C5         -6.8799   -3.4393    1.2359 C.ar      1 <1>        -0.0693
      6 C6         -7.6453   -2.3369    1.5602 C.ar      1 <1>        -0.0966
      7 C7         -7.0457   -1.1553    1.9615 C.ar      1 <1>        -0.0996
      8 C8         -5.6698   -1.0698    2.0411 C.ar      1 <1>        -0.0864
      9 C9         -4.8904   -2.1746    1.7167 C.ar      1 <1>        -0.0344
     10 C10        -3.4294   -2.4154    1.7012 C.2       1 <1>         0.0514
     11 C11        -2.4410   -1.5380    2.0276 C.2       1 <1>        -0.0090
     12 C12        -1.0374   -1.8751    1.7490 C.ar      1 <1>        -0.0137
     13 C13        -0.0183   -1.0300    2.1983 C.ar      1 <1>        -0.0644
     14 C14         1.2981   -1.3624    1.9279 C.ar      1 <1>        -0.0927
     15 C15         1.5553   -2.5265    1.2185 C.ar      1 <1>        -0.0707
     16 C16         0.4969   -3.3188    0.8029 C.ar      1 <1>        -0.0292
     17 N17        -0.7455   -2.9853    1.0758 N.ar      1 <1>        -0.3724
     18 H18        -4.6842   -5.2223    0.7470 H         1 <1>         0.3331
     19 H19        -7.3593   -4.3553    0.9239 H         1 <1>         0.1252
     20 H20        -8.7218   -2.3967    1.4998 H         1 <1>         0.1279
     21 H21        -7.6548   -0.2995    2.2123 H         1 <1>         0.1157
     22 H22        -5.2010   -0.1485    2.3538 H         1 <1>         0.1343
     23 H23        -2.6881   -0.5944    2.4912 H         1 <1>         0.1782
     24 H24        -0.2546   -0.1308    2.7479 H         1 <1>         0.1312
     25 H25         2.1070   -0.7292    2.2615 H         1 <1>         0.1330
     26 H26         2.5717   -2.8125    0.9917 H         1 <1>         0.1280
     27 H27         0.6956   -4.2254    0.2505 H         1 <1>         0.2029
@<TRIPOS>BOND
     1    1    2 2
     2    2   10 1
     3    2    3 am
     4    3    4 1
     5    3   18 1
     6    4    9 ar
     7    4    5 ar
     8    5    6 ar
     9    5   19 1
    10    6    7 ar
    11    6   20 1
    12    7    8 ar
    13    7   21 1
    14    8    9 ar
    15    8   22 1
    16    9   10 1
    17   10   11 2
    18   11   12 1
    19   11   23 1
    20   12   17 ar
    21   12   13 ar
    22   13   14 ar
    23   13   24 1
    24   14   15 ar
    25   14   25 1
    26   15   16 ar
    27   15   26 1
    28   16   17 ar
    29   16   27 1
@<TRIPOS>Similarity
1.0125
@<TRIPOS>ShapeSim
0.7132
@<TRIPOS>PharmSim
0.2992
# END
# Name:		C1[C@H](OC2=CC(=CC(=C2C1=O)O)O)C3=CC(=C(C=C3)O)O
# Created and modified by SHAFTS on Sun Mar 21 16:57:45 2021

# 

@<TRIPOS>MOLECULE
C1[C@H](OC2=CC(=CC(=C2C1=O)O)O)C3=CC(=C(C=C3)O)O
   33    35     0
SMALL
USER_CHARGE


@<TRIPOS>ATOM
      1 O1         -8.7549   -4.4230    1.9375 O.2       1 <1>        -0.4549
      2 C2         -7.8536   -3.6119    1.9935 C.2       1 <1>         0.0866
      3 C3         -6.3994   -4.0394    2.0786 C.3       1 <1>         0.0708
      4 C4         -5.5932   -3.0891    1.1813 C.3       1 <1>         0.0642
      5 H5         -5.9401   -3.1790    0.1519 H         1 <1>         0.1405
      6 C6         -4.1316   -3.4487    1.2527 C.ar      1 <1>        -0.0588
      7 C7         -3.3707   -3.0318    2.3286 C.ar      1 <1>        -0.0786
      8 C8         -2.0289   -3.3588    2.3986 C.ar      1 <1>        -0.0561
      9 C9         -1.4447   -4.1063    1.3892 C.ar      1 <1>        -0.0040
     10 O10        -0.1253   -4.4291    1.4567 O.3       1 <1>        -0.4307
     11 C11        -2.2110   -4.5266    0.3059 C.ar      1 <1>        -0.0022
     12 O12        -1.6421   -5.2609   -0.6873 O.3       1 <1>        -0.4313
     13 C13        -3.5558   -4.1999    0.2445 C.ar      1 <1>        -0.0491
     14 O14        -5.7766   -1.7465    1.6303 O.3       1 <1>        -0.3855
     15 C15        -7.0381   -1.2812    1.7884 C.ar      1 <1>         0.0330
     16 C16        -7.2804    0.0806    1.7615 C.ar      1 <1>        -0.0094
     17 C17        -8.5718    0.5642    1.9307 C.ar      1 <1>        -0.0128
     18 O18        -8.7968    1.9019    1.9018 O.3       1 <1>        -0.4242
     19 C19        -9.6350   -0.3075    2.1289 C.ar      1 <1>        -0.0189
     20 C20        -9.4156   -1.6735    2.1563 C.ar      1 <1>        -0.0008
     21 O21       -10.4506   -2.5278    2.3507 O.3       1 <1>        -0.4187
     22 C22        -8.1134   -2.1681    1.9760 C.ar      1 <1>         0.0588
     23 H23        -6.0498   -3.9636    3.1083 H         1 <1>         0.1104
     24 H24        -6.2925   -5.0646    1.7240 H         1 <1>         0.1104
     25 H25        -3.8250   -2.4490    3.1163 H         1 <1>         0.1392
     26 H26        -1.4364   -3.0313    3.2400 H         1 <1>         0.1363
     27 H27         0.0523   -5.2655    1.9084 H         1 <1>         0.3567
     28 H28        -1.6814   -6.2161   -0.5421 H         1 <1>         0.3565
     29 H29        -4.1527   -4.5247   -0.5949 H         1 <1>         0.1411
     30 H30        -6.4630    0.7698    1.6089 H         1 <1>         0.1440
     31 H31        -8.9917    2.2489    1.0204 H         1 <1>         0.3676
     32 H32       -10.6339    0.0811    2.2615 H         1 <1>         0.1388
     33 H33       -10.8826   -2.8144    1.5345 H         1 <1>         0.3710
@<TRIPOS>BOND
     1    1    2 2
     2    2   22 1
     3    2    3 1
     4    3    4 1
     5    3   23 1
     6    3   24 1
     7    4    5 1
     8    4    6 1
     9    4   14 1
    10    6   13 ar
    11    6    7 ar
    12    7    8 ar
    13    7   25 1
    14    8    9 ar
    15    8   26 1
    16    9   10 1
    17    9   11 ar
    18   10   27 1
    19   11   12 1
    20   11   13 ar
    21   12   28 1
    22   13   29 1
    23   14   15 1
    24   15   22 ar
    25   15   16 ar
    26   16   17 ar
    27   16   30 1
    28   17   18 1
    29   17   19 ar
    30   18   31 1
    31   19   20 ar
    32   19   32 1
    33   20   21 1
    34   20   22 ar
    35   21   33 1
@<TRIPOS>Similarity
1.0085
@<TRIPOS>ShapeSim
0.7113
@<TRIPOS>PharmSim
0.2972
# END
# Name:		C1CC(CNC1)NC(=O)C2=C(C=C(S2)C3=CC(=CC=C3)F)NC(=O)N
# Created and modified by SHAFTS on Sun Mar 21 16:57:45 2021

# 

@<TRIPOS>MOLECULE
C1CC(CNC1)NC(=O)C2=C(C=C(S2)C3=CC(=CC=C3)F)NC(=O)N
   45    47     0
SMALL
USER_CHARGE


@<TRIPOS>ATOM
      1 N1         -9.0954   -6.4573    1.3306 N.am      1 <1>        -0.3201
      2 C2         -8.6845   -5.1841    1.4927 C.2       1 <1>         0.1192
      3 O3         -9.5018   -4.2896    1.5935 O.2       1 <1>        -0.4787
      4 N4         -7.3674   -4.9022    1.5429 N.am      1 <1>        -0.2675
      5 C5         -6.9394   -3.5748    1.6031 C.2       1 <1>         0.0001
      6 C6         -5.6174   -3.2140    1.5047 C.2       1 <1>         0.1054
      7 C7         -4.5365   -4.1131    1.3341 C.2       1 <1>         0.1057
      8 O8         -4.7459   -5.3107    1.2636 O.2       1 <1>        -0.4815
      9 N9         -3.2761   -3.6432    1.2498 N.am      1 <1>        -0.3454
     10 C10        -2.1579   -4.5732    1.0733 C.3       1 <1>        -0.0465
     11 H11        -2.3626   -5.4957    1.6168 H         1 <1>         0.1248
     12 C12        -1.9824   -4.8851   -0.4156 C.3       1 <1>        -0.0450
     13 C13        -0.7638   -5.7949   -0.5963 C.3       1 <1>        -0.0667
     14 C14         0.4682   -5.1131    0.0027 C.3       1 <1>        -0.1063
     15 N15         0.2483   -4.8655    1.4326 N.4       1 <1>         0.4312
     16 H16         0.0387   -5.7373    1.8955 H         1 <1>         0.1566
     17 H17         1.0816   -4.4638    1.8355 H         1 <1>         0.1642
     18 C18        -0.8745   -3.9371    1.6114 C.3       1 <1>        -0.0839
     19 S19        -5.4724   -1.4658    1.6228 S.3       1 <1>        -0.0727
     20 C20        -7.2127   -1.2941    1.8012 C.2       1 <1>         0.0046
     21 C21        -7.9263   -0.0101    1.9659 C.ar      1 <1>        -0.0523
     22 C22        -9.3150    0.0069    2.1045 C.ar      1 <1>        -0.0758
     23 C23        -9.9763    1.2083    2.2579 C.ar      1 <1>        -0.0824
     24 C24        -9.2667    2.3951    2.2748 C.ar      1 <1>        -0.0436
     25 C25        -7.8875    2.3866    2.1373 C.ar      1 <1>         0.0703
     26 F26        -7.2008    3.5499    2.1542 F         1 <1>        -0.2632
     27 C27        -7.2135    1.1897    1.9892 C.ar      1 <1>        -0.0329
     28 C28        -7.8066   -2.5187    1.7601 C.2       1 <1>        -0.0213
     29 H29       -10.0433   -6.6602    1.2945 H         1 <1>         0.3011
     30 H30        -8.4434   -7.1704    1.2461 H         1 <1>         0.2776
     31 H31        -6.7170   -5.6218    1.5371 H         1 <1>         0.3551
     32 H32        -3.1093   -2.6893    1.3060 H         1 <1>         0.3055
     33 H33        -2.8729   -5.3901   -0.7897 H         1 <1>         0.0719
     34 H34        -1.8294   -3.9572   -0.9668 H         1 <1>         0.0648
     35 H35        -0.9387   -6.7428   -0.0873 H         1 <1>         0.0602
     36 H36        -0.5992   -5.9763   -1.6584 H         1 <1>         0.0815
     37 H37         1.3376   -5.7581   -0.1245 H         1 <1>         0.0932
     38 H38         0.6423   -4.1655   -0.5071 H         1 <1>         0.0861
     39 H39        -0.6724   -3.0143    1.0676 H         1 <1>         0.1010
     40 H40        -0.9956   -3.7140    2.6714 H         1 <1>         0.1010
     41 H41        -9.8712   -0.9188    2.0913 H         1 <1>         0.1385
     42 H42       -11.0510    1.2216    2.3648 H         1 <1>         0.1383
     43 H43        -9.7894    3.3325    2.3951 H         1 <1>         0.1356
     44 H44        -6.1388    1.1830    1.8825 H         1 <1>         0.1312
     45 H45        -8.8746   -2.6512    1.8504 H         1 <1>         0.1812
@<TRIPOS>BOND
     1    1    2 am
     2    1   29 1
     3    1   30 1
     4    2    3 2
     5    2    4 am
     6    4    5 1
     7    4   31 1
     8    5   28 1
     9    5    6 2
    10    6    7 1
    11    6   19 1
    12    7    8 2
    13    7    9 am
    14    9   10 1
    15    9   32 1
    16   10   11 1
    17   10   18 1
    18   10   12 1
    19   12   13 1
    20   12   33 1
    21   12   34 1
    22   13   14 1
    23   13   35 1
    24   13   36 1
    25   14   15 1
    26   14   37 1
    27   14   38 1
    28   15   16 1
    29   15   17 1
    30   15   18 1
    31   18   39 1
    32   18   40 1
    33   19   20 1
    34   20   21 1
    35   20   28 2
    36   21   27 ar
    37   21   22 ar
    38   22   23 ar
    39   22   41 1
    40   23   24 ar
    41   23   42 1
    42   24   25 ar
    43   24   43 1
    44   25   26 1
    45   25   27 ar
    46   27   44 1
    47   28   45 1
@<TRIPOS>Similarity
1.0083
@<TRIPOS>ShapeSim
0.6702
@<TRIPOS>PharmSim
0.3381
# END
# Name:		C1CC(CNC1)NC(=O)C2=C(C=C(S2)C3=CC(=CC=C3)F)NC(=O)N
# Created and modified by SHAFTS on Sun Mar 21 16:57:45 2021

# 

@<TRIPOS>MOLECULE
C1CC(CNC1)NC(=O)C2=C(C=C(S2)C3=CC(=CC=C3)F)NC(=O)N
   45    47     0
SMALL
USER_CHARGE


@<TRIPOS>ATOM
      1 N1         -9.0954   -6.4573    1.3306 N.am      1 <1>        -0.3201
      2 C2         -8.6845   -5.1841    1.4927 C.2       1 <1>         0.1192
      3 O3         -9.5018   -4.2896    1.5935 O.2       1 <1>        -0.4787
      4 N4         -7.3674   -4.9022    1.5429 N.am      1 <1>        -0.2675
      5 C5         -6.9394   -3.5748    1.6031 C.2       1 <1>         0.0001
      6 C6         -5.6174   -3.2140    1.5047 C.2       1 <1>         0.1054
      7 C7         -4.5365   -4.1131    1.3341 C.2       1 <1>         0.1057
      8 O8         -4.7459   -5.3107    1.2636 O.2       1 <1>        -0.4815
      9 N9         -3.2761   -3.6432    1.2498 N.am      1 <1>        -0.3454
     10 C10        -2.1579   -4.5732    1.0733 C.3       1 <1>        -0.0465
     11 H11        -2.3626   -5.4957    1.6168 H         1 <1>         0.1248
     12 C12        -1.9824   -4.8851   -0.4156 C.3       1 <1>        -0.0450
     13 C13        -0.7638   -5.7949   -0.5963 C.3       1 <1>        -0.0667
     14 C14         0.4682   -5.1131    0.0027 C.3       1 <1>        -0.1063
     15 N15         0.2483   -4.8655    1.4326 N.4       1 <1>         0.4312
     16 H16         0.0387   -5.7373    1.8955 H         1 <1>         0.1566
     17 H17         1.0816   -4.4638    1.8355 H         1 <1>         0.1642
     18 C18        -0.8745   -3.9371    1.6114 C.3       1 <1>        -0.0839
     19 S19        -5.4724   -1.4658    1.6228 S.3       1 <1>        -0.0727
     20 C20        -7.2127   -1.2941    1.8012 C.2       1 <1>         0.0046
     21 C21        -7.9263   -0.0101    1.9659 C.ar      1 <1>        -0.0523
     22 C22        -9.3150    0.0069    2.1045 C.ar      1 <1>        -0.0758
     23 C23        -9.9763    1.2083    2.2579 C.ar      1 <1>        -0.0824
     24 C24        -9.2667    2.3951    2.2748 C.ar      1 <1>        -0.0436
     25 C25        -7.8875    2.3866    2.1373 C.ar      1 <1>         0.0703
     26 F26        -7.2008    3.5499    2.1542 F         1 <1>        -0.2632
     27 C27        -7.2135    1.1897    1.9892 C.ar      1 <1>        -0.0329
     28 C28        -7.8066   -2.5187    1.7601 C.2       1 <1>        -0.0213
     29 H29       -10.0433   -6.6602    1.2945 H         1 <1>         0.3011
     30 H30        -8.4434   -7.1704    1.2461 H         1 <1>         0.2776
     31 H31        -6.7170   -5.6218    1.5371 H         1 <1>         0.3551
     32 H32        -3.1093   -2.6893    1.3060 H         1 <1>         0.3055
     33 H33        -2.8729   -5.3901   -0.7897 H         1 <1>         0.0719
     34 H34        -1.8294   -3.9572   -0.9668 H         1 <1>         0.0648
     35 H35        -0.9387   -6.7428   -0.0873 H         1 <1>         0.0602
     36 H36        -0.5992   -5.9763   -1.6584 H         1 <1>         0.0815
     37 H37         1.3376   -5.7581   -0.1245 H         1 <1>         0.0932
     38 H38         0.6423   -4.1655   -0.5071 H         1 <1>         0.0861
     39 H39        -0.6724   -3.0143    1.0676 H         1 <1>         0.1010
     40 H40        -0.9956   -3.7140    2.6714 H         1 <1>         0.1010
     41 H41        -9.8712   -0.9188    2.0913 H         1 <1>         0.1385
     42 H42       -11.0510    1.2216    2.3648 H         1 <1>         0.1383
     43 H43        -9.7894    3.3325    2.3951 H         1 <1>         0.1356
     44 H44        -6.1388    1.1830    1.8825 H         1 <1>         0.1312
     45 H45        -8.8746   -2.6512    1.8504 H         1 <1>         0.1812
@<TRIPOS>BOND
     1    1    2 am
     2    1   29 1
     3    1   30 1
     4    2    3 2
     5    2    4 am
     6    4    5 1
     7    4   31 1
     8    5   28 1
     9    5    6 2
    10    6    7 1
    11    6   19 1
    12    7    8 2
    13    7    9 am
    14    9   10 1
    15    9   32 1
    16   10   11 1
    17   10   18 1
    18   10   12 1
    19   12   13 1
    20   12   33 1
    21   12   34 1
    22   13   14 1
    23   13   35 1
    24   13   36 1
    25   14   15 1
    26   14   37 1
    27   14   38 1
    28   15   16 1
    29   15   17 1
    30   15   18 1
    31   18   39 1
    32   18   40 1
    33   19   20 1
    34   20   21 1
    35   20   28 2
    36   21   27 ar
    37   21   22 ar
    38   22   23 ar
    39   22   41 1
    40   23   24 ar
    41   23   42 1
    42   24   25 ar
    43   24   43 1
    44   25   26 1
    45   25   27 ar
    46   27   44 1
    47   28   45 1
@<TRIPOS>Similarity
1.0083
@<TRIPOS>ShapeSim
0.6702
@<TRIPOS>PharmSim
0.3381
# END
# Name:		COCCCN1C(=C(C2=NC3=CC=CC=C3N=C21)C(=O)NC4CCCC4)N
# Created and modified by SHAFTS on Sun Mar 21 16:57:45 2021

# 

@<TRIPOS>MOLECULE
COCCCN1C(=C(C2=NC3=CC=CC=C3N=C21)C(=O)NC4CCCC4)N
   52    55     0
SMALL
USER_CHARGE


@<TRIPOS>ATOM
      1 C1         -8.4575   -9.4727   -1.6223 C.3       1 <1>        -0.0046
      2 O2         -7.7655   -8.2305   -1.4797 O.3       1 <1>        -0.4740
      3 C3         -7.4184   -7.9099   -0.1311 C.3       1 <1>        -0.0038
      4 C4         -6.6859   -6.5671   -0.0984 C.3       1 <1>        -0.0142
      5 C5         -6.3142   -6.2239    1.3454 C.3       1 <1>         0.0122
      6 N6         -5.6128   -4.9381    1.3767 N.pl3     1 <1>        -0.2965
      7 C7         -4.2650   -4.7895    1.2616 C.2       1 <1>         0.0198
      8 N8         -3.3761   -5.8201    1.1006 N.pl3     1 <1>        -0.3618
      9 C9         -3.9167   -3.4449    1.3295 C.2       1 <1>         0.1238
     10 C10        -2.5697   -2.8850    1.2446 C.2       1 <1>         0.1167
     11 O11        -2.1071   -2.5732    0.1622 O.2       1 <1>        -0.4750
     12 N12        -1.8392   -2.7136    2.3642 N.am      1 <1>        -0.3444
     13 C13        -0.4888   -2.1522    2.2790 C.3       1 <1>        -0.0403
     14 C14        -0.5515   -0.6122    2.3452 C.3       1 <1>        -0.0537
     15 C15        -0.3006   -0.2857    3.8383 C.3       1 <1>        -0.0689
     16 C16         0.7670   -1.3326    4.2425 C.3       1 <1>        -0.0682
     17 C17         0.3495   -2.6103    3.4854 C.3       1 <1>        -0.0527
     18 C18        -5.1724   -2.6969    1.5031 C.ar      1 <1>         0.0772
     19 N19        -5.4770   -1.4207    1.6267 N.ar      1 <1>        -0.3482
     20 C20        -6.7575   -1.0590    1.7731 C.ar      1 <1>         0.0119
     21 C21        -7.1015    0.2989    1.9062 C.ar      1 <1>        -0.0471
     22 C22        -8.4064    0.6548    2.0541 C.ar      1 <1>        -0.0831
     23 C23        -9.4127   -0.3088    2.0765 C.ar      1 <1>        -0.0828
     24 C24        -9.1183   -1.6314    1.9512 C.ar      1 <1>        -0.0461
     25 C25        -7.7809   -2.0394    1.7953 C.ar      1 <1>         0.0140
     26 N26        -7.4823   -3.3389    1.6707 N.ar      1 <1>        -0.3348
     27 C27        -6.2293   -3.7121    1.5210 C.ar      1 <1>         0.0795
     28 H28        -7.8302  -10.2828   -1.2504 H         1 <1>         0.0714
     29 H29        -9.3850   -9.4396   -1.0506 H         1 <1>         0.0714
     30 H30        -8.6852   -9.6431   -2.6746 H         1 <1>         0.1075
     31 H31        -8.3242   -7.8445    0.4715 H         1 <1>         0.0914
     32 H32        -6.7695   -8.6877    0.2716 H         1 <1>         0.0842
     33 H33        -5.7800   -6.6326   -0.7011 H         1 <1>         0.0672
     34 H34        -7.3348   -5.7894   -0.5013 H         1 <1>         0.0672
     35 H35        -7.2201   -6.1584    1.9481 H         1 <1>         0.1331
     36 H36        -5.6653   -7.0016    1.7482 H         1 <1>         0.1187
     37 H37        -3.6960   -6.7350    1.0616 H         1 <1>         0.2802
     38 H38        -2.4269   -5.6346    1.0257 H         1 <1>         0.2959
     39 H39        -2.2077   -2.9620    3.2265 H         1 <1>         0.2996
     40 H40        -0.0114   -2.4678    1.3513 H         1 <1>         0.1106
     41 H41         0.2270   -0.1717    1.7223 H         1 <1>         0.0510
     42 H42        -1.5347   -0.2569    2.0370 H         1 <1>         0.0510
     43 H43         0.0882    0.7262    3.9524 H         1 <1>         0.0436
     44 H44        -1.2120   -0.4185    4.4212 H         1 <1>         0.0436
     45 H45         1.7583   -1.0084    3.9260 H         1 <1>         0.0439
     46 H46         0.7458   -1.5030    5.3189 H         1 <1>         0.0439
     47 H47        -0.2485   -3.2502    4.1342 H         1 <1>         0.0532
     48 H48         1.2341   -3.1473    3.1431 H         1 <1>         0.0532
     49 H49        -6.3319    1.0566    1.8912 H         1 <1>         0.1484
     50 H50        -8.6656    1.6983    2.1559 H         1 <1>         0.1278
     51 H51       -10.4412   -0.0014    2.1956 H         1 <1>         0.1279
     52 H52        -9.9095   -2.3662    1.9713 H         1 <1>         0.1488
@<TRIPOS>BOND
     1    1    2 1
     2    1   28 1
     3    1   29 1
     4    1   30 1
     5    2    3 1
     6    3    4 1
     7    3   31 1
     8    3   32 1
     9    4    5 1
    10    4   33 1
    11    4   34 1
    12    5    6 1
    13    5   35 1
    14    5   36 1
    15    6   27 1
    16    6    7 1
    17    7    8 1
    18    7    9 2
    19    8   37 1
    20    8   38 1
    21    9   10 1
    22    9   18 1
    23   10   11 2
    24   10   12 am
    25   12   13 1
    26   12   39 1
    27   13   17 1
    28   13   14 1
    29   13   40 1
    30   14   15 1
    31   14   41 1
    32   14   42 1
    33   15   16 1
    34   15   43 1
    35   15   44 1
    36   16   17 1
    37   16   45 1
    38   16   46 1
    39   17   47 1
    40   17   48 1
    41   18   27 ar
    42   18   19 ar
    43   19   20 ar
    44   20   25 ar
    45   20   21 ar
    46   21   22 ar
    47   21   49 1
    48   22   23 ar
    49   22   50 1
    50   23   24 ar
    51   23   51 1
    52   24   25 ar
    53   24   52 1
    54   25   26 ar
    55   26   27 ar
@<TRIPOS>Similarity
1.0083
@<TRIPOS>ShapeSim
0.6190
@<TRIPOS>PharmSim
0.3894
# END
# Name:		CC1=C(SC2=C1N=C(N=C2N3CCOCC3)C4=CN=C(N=C4)N)CN5CCN(CC5)S(=O)(=O)C
# Created and modified by SHAFTS on Sun Mar 21 16:57:45 2021

# 

@<TRIPOS>MOLECULE
CC1=C(SC2=C1N=C(N=C2N3CCOCC3)C4=CN=C(N=C4)N)CN5CCN(CC5)S(=O)(=O)C
   62    66     0
SMALL
USER_CHARGE


@<TRIPOS>ATOM
      1 C1         -6.3345    1.4391    1.9184 C.3       1 <1>        -0.0270
      2 C2         -7.2682    0.2560    1.9186 C.2       1 <1>        -0.0514
      3 C3         -8.5778    0.3934    2.0516 C.2       1 <1>        -0.0393
      4 C4         -9.2879    1.7124    2.2159 C.3       1 <1>        -0.1397
      5 N5         -9.6475    2.2429    0.8941 N.3       1 <1>         0.3459
      6 C6         -8.5197    2.1353   -0.0409 C.3       1 <1>        -0.1579
      7 C7         -8.9868    2.5278   -1.4467 C.3       1 <1>         0.0137
      8 N8         -9.6122    3.8572   -1.3771 N.am      1 <1>        -0.1832
      9 S9         -9.1510    5.0685   -2.4077 S.o2      1 <1>        -0.0640
     10 C10       -10.2471    4.8849   -3.8413 C.3       1 <1>         0.2562
     11 O11        -9.4512    6.2638   -1.7003 O.2       1 <1>        -0.0966
     12 O12        -7.8133    4.7406   -2.7575 O.2       1 <1>        -0.0966
     13 C13       -10.6585    4.0819   -0.3681 C.3       1 <1>         0.0147
     14 C14       -10.1256    3.6283    0.9952 C.3       1 <1>        -0.1567
     15 S15        -9.3752   -1.1702    2.0104 S.3       1 <1>        -0.0844
     16 C16        -7.8390   -1.9994    1.8050 C.ar      1 <1>         0.0400
     17 C17        -7.5264   -3.3634    1.6745 C.ar      1 <1>        -0.1224
     18 N18        -8.5286   -4.3197    1.6972 N.3       1 <1>         0.3929
     19 C19        -9.3240   -4.2203    2.9296 C.3       1 <1>        -0.1234
     20 C20       -10.4537   -5.2527    2.8861 C.3       1 <1>        -0.0076
     21 O21        -9.8945   -6.5566    2.7063 O.3       1 <1>        -0.4611
     22 C22        -9.1141   -6.6891    1.5151 C.3       1 <1>        -0.0087
     23 C23        -7.9708   -5.6712    1.5447 C.3       1 <1>        -0.1220
     24 N24        -6.2581   -3.7215    1.5291 N.ar      1 <1>        -0.3644
     25 C25        -5.2932   -2.8072    1.5065 C.ar      1 <1>         0.0547
     26 C26        -3.8894   -3.2534    1.3413 C.ar      1 <1>         0.0771
     27 C27        -3.5797   -4.6099    1.2052 C.ar      1 <1>         0.0208
     28 N28        -2.3166   -4.9678    1.0596 N.ar      1 <1>        -0.3382
     29 C29        -1.3502   -4.0605    1.0415 C.ar      1 <1>         0.0384
     30 N30        -0.0412   -4.4765    0.8870 N.pl3     1 <1>        -0.3366
     31 N31        -1.6039   -2.7653    1.1671 N.ar      1 <1>        -0.3382
     32 C32        -2.8419   -2.3281    1.3117 C.ar      1 <1>         0.0208
     33 N33        -5.5405   -1.5185    1.6252 N.ar      1 <1>        -0.3477
     34 C34        -6.8040   -1.0612    1.7720 C.ar      1 <1>        -0.0049
     35 H35        -6.2088    1.8024    0.8984 H         1 <1>         0.0678
     36 H36        -6.7531    2.2324    2.5376 H         1 <1>         0.0606
     37 H37        -5.3665    1.1380    2.3188 H         1 <1>         0.0678
     38 H38       -10.1918    1.5672    2.8074 H         1 <1>         0.0880
     39 H39        -8.6306    2.4180    2.7241 H         1 <1>         0.0665
     40 H40        -7.7192    2.8037    0.2761 H         1 <1>         0.0353
     41 H41        -8.1537    1.1087   -0.0527 H         1 <1>         0.0640
     42 H42        -8.1310    2.5606   -2.1210 H         1 <1>         0.1222
     43 H43        -9.7132    1.7998   -1.8077 H         1 <1>         0.1077
     44 H44       -11.2837    4.9946   -3.5225 H         1 <1>         0.1712
     45 H45       -10.0111    5.6512   -4.5796 H         1 <1>         0.1712
     46 H46       -10.1054    3.8987   -4.2832 H         1 <1>         0.1712
     47 H47       -10.9080    5.1423   -0.3293 H         1 <1>         0.1226
     48 H48       -11.5457    3.5033   -0.6254 H         1 <1>         0.1081
     49 H49       -10.9241    3.6844    1.7349 H         1 <1>         0.0662
     50 H50        -9.3028    4.2759    1.2979 H         1 <1>         0.0375
     51 H51        -8.6857   -4.4153    3.7913 H         1 <1>         0.0507
     52 H52        -9.7483   -3.2194    3.0092 H         1 <1>         0.0650
     53 H53       -11.0112   -5.2216    3.8222 H         1 <1>         0.1333
     54 H54       -11.1224   -5.0256    2.0558 H         1 <1>         0.1043
     55 H55        -8.7028   -7.6969    1.4597 H         1 <1>         0.1312
     56 H56        -9.7438   -6.5039    0.6449 H         1 <1>         0.0950
     57 H57        -7.4074   -5.7296    0.6134 H         1 <1>         0.0743
     58 H58        -7.3109   -5.8895    2.3843 H         1 <1>         0.0528
     59 H59        -4.3619   -5.3543    1.2194 H         1 <1>         0.2541
     60 H60         0.1598   -5.4209    0.7937 H         1 <1>         0.2971
     61 H61         0.6765   -3.8241    0.8719 H         1 <1>         0.2971
     62 H62        -3.0413   -1.2715    1.4134 H         1 <1>         0.2541
@<TRIPOS>BOND
     1    1    2 1
     2    1   35 1
     3    1   36 1
     4    1   37 1
     5    2   34 1
     6    2    3 2
     7    3    4 1
     8    3   15 1
     9    4    5 1
    10    4   38 1
    11    4   39 1
    12    5   14 1
    13    5    6 1
    14    6    7 1
    15    6   40 1
    16    6   41 1
    17    7    8 1
    18    7   42 1
    19    7   43 1
    20    8    9 am
    21    8   13 1
    22    9   10 1
    23    9   11 2
    24    9   12 2
    25   10   44 1
    26   10   45 1
    27   10   46 1
    28   13   14 1
    29   13   47 1
    30   13   48 1
    31   14   49 1
    32   14   50 1
    33   15   16 1
    34   16   34 ar
    35   16   17 ar
    36   17   18 1
    37   17   24 ar
    38   18   23 1
    39   18   19 1
    40   19   20 1
    41   19   51 1
    42   19   52 1
    43   20   21 1
    44   20   53 1
    45   20   54 1
    46   21   22 1
    47   22   23 1
    48   22   55 1
    49   22   56 1
    50   23   57 1
    51   23   58 1
    52   24   25 ar
    53   25   26 1
    54   25   33 ar
    55   26   32 ar
    56   26   27 ar
    57   27   28 ar
    58   27   59 1
    59   28   29 ar
    60   29   30 1
    61   29   31 ar
    62   30   60 1
    63   30   61 1
    64   31   32 ar
    65   32   62 1
    66   33   34 ar
@<TRIPOS>Similarity
1.0076
@<TRIPOS>ShapeSim
0.5785
@<TRIPOS>PharmSim
0.4292
# END
# Name:		CC1=CC2=NNC(=O)N2C3=CC=CC=C13
# Created and modified by SHAFTS on Sun Mar 21 16:57:45 2021

# 

@<TRIPOS>MOLECULE
CC1=CC2=NNC(=O)N2C3=CC=CC=C13
   24    26     0
SMALL
USER_CHARGE


@<TRIPOS>ATOM
      1 C1         -9.8024   -3.6137    1.9017 C.3       1 <1>        -0.0247
      2 C2         -8.3492   -3.2342    1.7783 C.2       1 <1>        -0.0652
      3 C3         -7.4079   -4.1865    1.6159 C.2       1 <1>        -0.0014
      4 C4         -5.9983   -3.8058    1.4966 C.2       1 <1>         0.0818
      5 N5         -4.9165   -4.5301    1.3349 N.2       1 <1>        -0.2939
      6 N6         -3.8186   -3.6615    1.2810 N.am      1 <1>        -0.2208
      7 C7         -4.2867   -2.4047    1.4158 C.2       1 <1>         0.1919
      8 O8         -3.6180   -1.3861    1.4170 O.2       1 <1>        -0.4530
      9 N9         -5.6276   -2.4753    1.5496 N.am      1 <1>        -0.2153
     10 C10        -6.5878   -1.4828    1.7164 C.ar      1 <1>         0.0035
     11 C11        -6.2099   -0.1476    1.7689 C.ar      1 <1>        -0.0525
     12 C12        -7.1660    0.8342    1.9342 C.ar      1 <1>        -0.0884
     13 C13        -8.5062    0.5000    2.0492 C.ar      1 <1>        -0.0921
     14 C14        -8.9013   -0.8189    1.9996 C.ar      1 <1>        -0.0766
     15 C15        -7.9446   -1.8240    1.8276 C.ar      1 <1>        -0.0352
     16 H16       -10.2565   -3.6398    0.9111 H         1 <1>         0.0737
     17 H17        -9.8831   -4.5974    2.3643 H         1 <1>         0.0665
     18 H18       -10.3188   -2.8785    2.5188 H         1 <1>         0.0665
     19 H19        -7.6927   -5.2275    1.5743 H         1 <1>         0.1701
     20 H20        -2.8900   -3.9182    1.1679 H         1 <1>         0.4039
     21 H21        -5.1680    0.1226    1.6810 H         1 <1>         0.1441
     22 H22        -6.8673    1.8714    1.9745 H         1 <1>         0.1369
     23 H23        -9.2445    1.2775    2.1788 H         1 <1>         0.1282
     24 H24        -9.9466   -1.0753    2.0897 H         1 <1>         0.1418
@<TRIPOS>BOND
     1    1    2 1
     2    1   16 1
     3    1   17 1
     4    1   18 1
     5    2   15 1
     6    2    3 2
     7    3    4 1
     8    3   19 1
     9    4    9 1
    10    4    5 2
    11    5    6 1
    12    6    7 am
    13    6   20 1
    14    7    8 2
    15    7    9 am
    16    9   10 1
    17   10   15 ar
    18   10   11 ar
    19   11   12 ar
    20   11   21 1
    21   12   13 ar
    22   12   22 1
    23   13   14 ar
    24   13   23 1
    25   14   15 ar
    26   14   24 1
@<TRIPOS>Similarity
1.0076
@<TRIPOS>ShapeSim
0.6557
@<TRIPOS>PharmSim
0.3519
# END
# Name:		CC1=CN=C(S1)NC(=O)C2=C(C3=CC=CC=C3S(=O)(=O)N2C)O
# Created and modified by SHAFTS on Sun Mar 21 16:57:45 2021

# 

@<TRIPOS>MOLECULE
CC1=CN=C(S1)NC(=O)C2=C(C3=CC=CC=C3S(=O)(=O)N2C)O
   35    37     0
SMALL
USER_CHARGE


@<TRIPOS>ATOM
      1 C1         -8.4825   -0.3041    1.9903 C.3       1 <1>        -0.0408
      2 C2         -7.3721   -1.3073    1.8129 C.2       1 <1>        -0.0405
      3 C3         -7.5240   -2.6204    1.6302 C.2       1 <1>        -0.0450
      4 N4         -6.3944   -3.2906    1.4993 N.2       1 <1>        -0.3665
      5 C5         -5.2951   -2.6060    1.5629 C.2       1 <1>         0.0751
      6 N6         -4.0184   -3.1392    1.4470 N.am      1 <1>        -0.2551
      7 C7         -3.8559   -4.4630    1.2533 C.2       1 <1>         0.1395
      8 O8         -4.8212   -5.2052    1.2788 O.2       1 <1>        -0.4397
      9 C9         -2.5607   -4.9919    1.0201 C.2       1 <1>         0.1175
     10 C10        -2.3187   -6.2830    1.3345 C.2       1 <1>         0.0049
     11 O11        -3.3341   -7.0061    1.8659 O.3       1 <1>        -0.5150
     12 C12        -1.0280   -6.9546    1.1380 C.ar      1 <1>         0.0680
     13 C13        -0.9459   -8.3505    1.1695 C.ar      1 <1>        -0.0620
     14 C14         0.2714   -8.9709    0.9824 C.ar      1 <1>        -0.0911
     15 C15         1.4147   -8.2230    0.7628 C.ar      1 <1>        -0.0941
     16 C16         1.3453   -6.8388    0.7303 C.ar      1 <1>        -0.0057
     17 C17         0.1383   -6.2119    0.9160 C.ar      1 <1>         0.3162
     18 S18         0.0126   -4.4496    0.8856 S.o2      1 <1>        -0.0268
     19 O19         0.1774   -4.0025    2.2244 O.2       1 <1>        -0.0740
     20 O20         0.8151   -3.9987   -0.1969 O.2       1 <1>        -0.0740
     21 N21        -1.5756   -4.1534    0.4638 N.am      1 <1>        -0.1305
     22 C22        -1.9289   -3.0583   -0.4430 C.3       1 <1>         0.0403
     23 S23        -5.6469   -0.9503    1.8032 S.3       1 <1>        -0.0624
     24 H24        -8.0564    0.6915    2.1142 H         1 <1>         0.0547
     25 H25        -9.1272   -0.3166    1.1116 H         1 <1>         0.0619
     26 H26        -9.0671   -0.5615    2.8736 H         1 <1>         0.0619
     27 H27        -8.4928   -3.0962    1.5930 H         1 <1>         0.1988
     28 H28        -3.2433   -2.5588    1.5054 H         1 <1>         0.3396
     29 H29        -1.8337   -8.9412    1.3405 H         1 <1>         0.1400
     30 H30         0.3330  -10.0488    1.0077 H         1 <1>         0.1301
     31 H31         2.3632   -8.7187    0.6169 H         1 <1>         0.1187
     32 H32         2.2380   -6.2555    0.5594 H         1 <1>         0.1366
     33 H33        -2.0048   -3.4398   -1.4612 H         1 <1>         0.0884
     34 H34        -2.8861   -2.6321   -0.1424 H         1 <1>         0.0956
     35 H35        -1.1588   -2.2881   -0.4000 H         1 <1>         0.0956
@<TRIPOS>BOND
     1    1    2 1
     2    1   24 1
     3    1   25 1
     4    1   26 1
     5    2   23 1
     6    2    3 2
     7    3    4 1
     8    3   27 1
     9    4    5 2
    10    5    6 1
    11    5   23 1
    12    6    7 am
    13    6   28 1
    14    7    8 2
    15    7    9 1
    16    9   21 1
    17    9   10 2
    18   10   11 1
    19   10   12 1
    20   12   17 ar
    21   12   13 ar
    22   13   14 ar
    23   13   29 1
    24   14   15 ar
    25   14   30 1
    26   15   16 ar
    27   15   31 1
    28   16   17 ar
    29   16   32 1
    30   17   18 1
    31   18   19 2
    32   18   20 2
    33   18   21 am
    34   21   22 1
    35   22   33 1
    36   22   34 1
    37   22   35 1
@<TRIPOS>Similarity
1.0073
@<TRIPOS>ShapeSim
0.6172
@<TRIPOS>PharmSim
0.3901
# END
# Name:		O=C(NC1=CC=C(F)C(C(F)(F)F)=C1)NC2=NN=C(S2)C3=CC=NC=C3
# Created and modified by SHAFTS on Sun Mar 21 16:57:45 2021

# 

@<TRIPOS>MOLECULE
O=C(NC1=CC=C(F)C(C(F)(F)F)=C1)NC2=NN=C(S2)C3=CC=NC=C3
   35    37     0
SMALL
USER_CHARGE


@<TRIPOS>ATOM
      1 O1         -3.0051   -2.4768    1.2206 O.2       1 <1>        -0.4305
      2 C2         -3.2227   -3.6729    1.2455 C.2       1 <1>         0.1710
      3 N3         -2.1973   -4.5456    1.1869 N.am      1 <1>        -0.2279
      4 C4         -0.8926   -4.0790    1.0979 C.2       1 <1>         0.1444
      5 N5         -0.5363   -2.8276    1.0692 N.2       1 <1>        -0.2375
      6 N6          0.6970   -2.5706    0.9867 N.2       1 <1>        -0.2518
      7 C7          1.5006   -3.5973    0.9377 C.2       1 <1>         0.1168
      8 C8          2.9743   -3.5471    0.8408 C.ar      1 <1>        -0.0122
      9 C9          3.7326   -4.7231    0.7901 C.ar      1 <1>        -0.0433
     10 C10         5.1055   -4.6299    0.6999 C.ar      1 <1>        -0.0312
     11 N11         5.7038   -3.4543    0.6614 N.ar      1 <1>        -0.3951
     12 C12         5.0275   -2.3221    0.7067 C.ar      1 <1>        -0.0278
     13 C13         3.6510   -2.3224    0.7914 C.ar      1 <1>        -0.0375
     14 S14         0.5119   -5.0559    1.0155 S.3       1 <1>         0.0439
     15 N15        -4.4887   -4.1258    1.3374 N.am      1 <1>        -0.2766
     16 C16        -5.5456   -3.2217    1.5019 C.ar      1 <1>        -0.0247
     17 C17        -5.5009   -1.9801    0.8827 C.ar      1 <1>        -0.0369
     18 C18        -6.5444   -1.0897    1.0463 C.ar      1 <1>        -0.0199
     19 C19        -7.6341   -1.4349    1.8276 C.ar      1 <1>         0.0983
     20 F20        -8.6536   -0.5628    1.9863 F         1 <1>        -0.2509
     21 C21        -7.6805   -2.6731    2.4462 C.ar      1 <1>         0.0889
     22 C22        -8.8678   -3.0462    3.2960 C.3       1 <1>         0.3599
     23 F23        -8.6869   -4.3347    3.8101 F         1 <1>        -0.1851
     24 F24        -8.9903   -2.1360    4.3513 F         1 <1>        -0.1851
     25 F25       -10.0284   -3.0142    2.5155 F         1 <1>        -0.1851
     26 C26        -6.6423   -3.5683    2.2802 C.ar      1 <1>        -0.0275
     27 H27        -2.3708   -5.4998    1.2067 H         1 <1>         0.3620
     28 H28         3.2497   -5.6887    0.8215 H         1 <1>         0.1363
     29 H29         5.6992   -5.5312    0.6605 H         1 <1>         0.2114
     30 H30         5.5588   -1.3825    0.6725 H         1 <1>         0.2123
     31 H31         3.1039   -1.3919    0.8281 H         1 <1>         0.1490
     32 H32        -4.6678   -5.0778    1.2896 H         1 <1>         0.3376
     33 H33        -4.6508   -1.7102    0.2737 H         1 <1>         0.1698
     34 H34        -6.5101   -0.1237    0.5647 H         1 <1>         0.1565
     35 H35        -6.6788   -4.5339    2.7627 H         1 <1>         0.1587
@<TRIPOS>BOND
     1    1    2 2
     2    2    3 am
     3    2   15 am
     4    3    4 1
     5    3   27 1
     6    4   14 1
     7    4    5 2
     8    5    6 1
     9    6    7 2
    10    7    8 1
    11    7   14 1
    12    8   13 ar
    13    8    9 ar
    14    9   10 ar
    15    9   28 1
    16   10   11 ar
    17   10   29 1
    18   11   12 ar
    19   12   13 ar
    20   12   30 1
    21   13   31 1
    22   15   16 1
    23   15   32 1
    24   16   26 ar
    25   16   17 ar
    26   17   18 ar
    27   17   33 1
    28   18   19 ar
    29   18   34 1
    30   19   20 1
    31   19   21 ar
    32   21   22 1
    33   21   26 ar
    34   22   23 1
    35   22   24 1
    36   22   25 1
    37   26   35 1
@<TRIPOS>Similarity
1.0069
@<TRIPOS>ShapeSim
0.7106
@<TRIPOS>PharmSim
0.2963
# END
# Name:		O=C1NC2=NC=C(C3=CC=C(C4=NNC=N4)C=C3)N=C2N1CCC5CCOCC5
# Created and modified by SHAFTS on Sun Mar 21 16:57:45 2021

# 

@<TRIPOS>MOLECULE
O=C1NC2=NC=C(C3=CC=C(C4=NNC=N4)C=C3)N=C2N1CCC5CCOCC5
   50    54     0
SMALL
USER_CHARGE


@<TRIPOS>ATOM
      1 O1          2.0535   -3.1615    0.8006 O.2       1 <1>        -0.4419
      2 C2          0.8512   -3.3190    0.8997 C.2       1 <1>         0.1887
      3 N3          0.2206   -4.5078    0.8668 N.am      1 <1>        -0.2257
      4 C4         -1.1416   -4.2852    1.0099 C.ar      1 <1>         0.0936
      5 N5         -2.1929   -5.0886    1.0451 N.ar      1 <1>        -0.3301
      6 C6         -3.4046   -4.5837    1.1957 C.ar      1 <1>         0.0304
      7 C7         -3.5797   -3.2066    1.3175 C.ar      1 <1>         0.0360
      8 C8         -4.9415   -2.6457    1.4861 C.ar      1 <1>        -0.0243
      9 C9         -5.1300   -1.2636    1.4977 C.ar      1 <1>        -0.0614
     10 C10        -6.3954   -0.7426    1.6545 C.ar      1 <1>        -0.0533
     11 C11        -7.4879   -1.5967    1.8019 C.ar      1 <1>         0.0031
     12 C12        -8.8503   -1.0355    1.9711 C.2       1 <1>         0.0563
     13 N13        -9.1553    0.2439    1.9927 N.2       1 <1>        -0.3184
     14 N14       -10.5460    0.3244    2.1715 N.pl3     1 <1>        -0.2855
     15 C15       -10.9958   -0.9412    2.2472 C.2       1 <1>         0.0296
     16 N16        -9.9755   -1.7477    2.1214 N.2       1 <1>        -0.3514
     17 C17        -7.2996   -2.9784    1.7898 C.ar      1 <1>        -0.0523
     18 C18        -6.0351   -3.4998    1.6274 C.ar      1 <1>        -0.0624
     19 N19        -2.5256   -2.3941    1.2832 N.ar      1 <1>        -0.3177
     20 C20        -1.3134   -2.8983    1.1323 C.ar      1 <1>         0.1040
     21 N21        -0.0484   -2.3312    1.0646 N.am      1 <1>        -0.2417
     22 C22         0.2560   -0.9012    1.1561 C.3       1 <1>         0.0162
     23 C23         0.4919   -0.5225    2.6196 C.3       1 <1>        -0.0412
     24 C24         0.8099    0.9710    2.7151 C.3       1 <1>        -0.0636
     25 C25        -0.4166    1.7843    2.2898 C.3       1 <1>        -0.0442
     26 C26        -0.1159    3.2753    2.4635 C.3       1 <1>        -0.0056
     27 O27         0.2402    3.5327    3.8232 O.3       1 <1>        -0.4710
     28 C28         1.4079    2.8358    4.2626 C.3       1 <1>        -0.0062
     29 C29         1.1685    1.3271    4.1612 C.3       1 <1>        -0.0472
     30 H30         0.6460   -5.3730    0.7609 H         1 <1>         0.3731
     31 H31        -4.2618   -5.2401    1.2238 H         1 <1>         0.2348
     32 H32        -4.2839   -0.6021    1.3842 H         1 <1>         0.1437
     33 H33        -6.5415    0.3274    1.6634 H         1 <1>         0.1433
     34 H34       -11.0776    1.1336    2.2295 H         1 <1>         0.3898
     35 H35       -12.0247   -1.2396    2.3845 H         1 <1>         0.3026
     36 H36        -8.1459   -3.6397    1.9039 H         1 <1>         0.1475
     37 H37        -5.8895   -4.5700    1.6176 H         1 <1>         0.1394
     38 H38         1.1521   -0.6825    0.5753 H         1 <1>         0.1299
     39 H39        -0.5817   -0.3255    0.7624 H         1 <1>         0.1299
     40 H40        -0.4041   -0.7412    3.2005 H         1 <1>         0.0549
     41 H41         1.3297   -1.0982    3.0134 H         1 <1>         0.0549
     42 H42         1.6501    1.2075    2.0623 H         1 <1>         0.0562
     43 H43        -0.6455    1.5782    1.2442 H         1 <1>         0.0562
     44 H44        -1.2690    1.5097    2.9112 H         1 <1>         0.0562
     45 H45         0.7106    3.5578    1.8115 H         1 <1>         0.0826
     46 H46        -0.9999    3.8571    2.2029 H         1 <1>         0.1115
     47 H47         2.2544    3.1125    3.6342 H         1 <1>         0.0826
     48 H48         1.6215    3.1011    5.2980 H         1 <1>         0.1115
     49 H49         0.3480    1.0434    4.8204 H         1 <1>         0.0484
     50 H50         2.0731    0.7943    4.4539 H         1 <1>         0.0484
@<TRIPOS>BOND
     1    1    2 2
     2    2   21 am
     3    2    3 am
     4    3    4 1
     5    3   30 1
     6    4   20 ar
     7    4    5 ar
     8    5    6 ar
     9    6    7 ar
    10    6   31 1
    11    7    8 1
    12    7   19 ar
    13    8   18 ar
    14    8    9 ar
    15    9   10 ar
    16    9   32 1
    17   10   11 ar
    18   10   33 1
    19   11   12 1
    20   11   17 ar
    21   12   16 1
    22   12   13 2
    23   13   14 1
    24   14   15 1
    25   14   34 1
    26   15   16 2
    27   15   35 1
    28   17   18 ar
    29   17   36 1
    30   18   37 1
    31   19   20 ar
    32   20   21 1
    33   21   22 1
    34   22   23 1
    35   22   38 1
    36   22   39 1
    37   23   24 1
    38   23   40 1
    39   23   41 1
    40   24   29 1
    41   24   25 1
    42   24   42 1
    43   25   26 1
    44   25   43 1
    45   25   44 1
    46   26   27 1
    47   26   45 1
    48   26   46 1
    49   27   28 1
    50   28   29 1
    51   28   47 1
    52   28   48 1
    53   29   49 1
    54   29   50 1
@<TRIPOS>Similarity
1.0062
@<TRIPOS>ShapeSim
0.7542
@<TRIPOS>PharmSim
0.2521
# END
# Name:		CC(C)(C)C1=CC=C(C=C1)C(=O)NC(=S)NC2=CC=C(C=C2)NC(=O)CCCCN(C)C
# Created and modified by SHAFTS on Sun Mar 21 16:57:45 2021

# 

@<TRIPOS>MOLECULE
CC(C)(C)C1=CC=C(C=C1)C(=O)NC(=S)NC2=CC=C(C=C2)NC(=O)CCCCN(C)C
   67    68     0
SMALL
USER_CHARGE


@<TRIPOS>ATOM
      1 C1         10.3039   -8.4391    5.6848 C.3       1 <1>        -0.0939
      2 N2          9.6094   -8.4797    4.3910 N.4       1 <1>         0.4075
      3 H3         10.2124   -8.1056    3.6738 H         1 <1>         0.1635
      4 C4          9.2637   -9.8696    4.0643 C.3       1 <1>        -0.0939
      5 C5          8.3827   -7.6751    4.4682 C.3       1 <1>        -0.1065
      6 C6          7.7247   -7.6149    3.0883 C.3       1 <1>        -0.0727
      7 C7          6.4471   -6.7769    3.1686 C.3       1 <1>        -0.0415
      8 C8          5.7891   -6.7166    1.7887 C.3       1 <1>         0.0446
      9 C9          4.5307   -5.8912    1.8678 C.2       1 <1>         0.0792
     10 O10         4.1933   -5.3997    2.9241 O.2       1 <1>        -0.4861
     11 N11         3.7801   -5.6994    0.7650 N.am      1 <1>        -0.3182
     12 C12         2.5788   -4.9839    0.8510 C.ar      1 <1>        -0.0521
     13 C13         1.4899   -5.3593    0.0752 C.ar      1 <1>        -0.0558
     14 C14         0.3063   -4.6539    0.1597 C.ar      1 <1>        -0.0478
     15 C15         0.2044   -3.5690    1.0207 C.ar      1 <1>        -0.0399
     16 N16        -0.9965   -2.8537    1.1067 N.am      1 <1>        -0.3216
     17 C17        -2.1707   -3.5127    1.1643 C.2       1 <1>        -0.0039
     18 S18        -2.2016   -5.2195    1.0360 S.2       1 <1>        -0.2710
     19 N19        -3.3207   -2.8279    1.3230 N.am      1 <1>        -0.2529
     20 C20        -4.4949   -3.4868    1.3806 C.2       1 <1>         0.1573
     21 O21        -4.5169   -4.6985    1.2894 O.2       1 <1>        -0.4013
     22 C22        -5.7558   -2.7361    1.5545 C.ar      1 <1>         0.0238
     23 C23        -5.7346   -1.3436    1.6538 C.ar      1 <1>        -0.0758
     24 C24        -6.9154   -0.6488    1.8155 C.ar      1 <1>        -0.0914
     25 C25        -8.1187   -1.3289    1.8800 C.ar      1 <1>        -0.1051
     26 C26        -9.4045   -0.5632    2.0569 C.3       1 <1>        -0.0599
     27 C27        -9.5868    0.4048    0.8861 C.3       1 <1>        -0.0612
     28 C28       -10.5797   -1.5421    2.0970 C.3       1 <1>        -0.0623
     29 C29        -9.3525    0.2252    3.3671 C.3       1 <1>        -0.0612
     30 C30        -8.1467   -2.7089    1.7824 C.ar      1 <1>        -0.0850
     31 C31        -6.9739   -3.4155    1.6145 C.ar      1 <1>        -0.0654
     32 C32         1.2933   -3.1939    1.7968 C.ar      1 <1>        -0.0564
     33 C33         2.4752   -3.9026    1.7162 C.ar      1 <1>        -0.0562
     34 H34        11.2141   -9.0360    5.6276 H         1 <1>         0.0760
     35 H35        10.5604   -7.4078    5.9274 H         1 <1>         0.0760
     36 H36         9.6524   -8.8432    6.4597 H         1 <1>         0.0760
     37 H37         8.6122  -10.2737    4.8392 H         1 <1>         0.0760
     38 H38         8.7484   -9.8997    3.1043 H         1 <1>         0.0760
     39 H39        10.1738  -10.4665    4.0070 H         1 <1>         0.0760
     40 H40         7.6938   -8.1304    5.1797 H         1 <1>         0.0869
     41 H41         8.6303   -6.6659    4.7971 H         1 <1>         0.0869
     42 H42         8.4136   -7.1596    2.3768 H         1 <1>         0.0581
     43 H43         7.4772   -8.6241    2.7593 H         1 <1>         0.0581
     44 H44         5.7582   -7.2322    3.8801 H         1 <1>         0.0596
     45 H45         6.6947   -5.7676    3.4975 H         1 <1>         0.0596
     46 H46         6.4780   -6.2613    1.0772 H         1 <1>         0.0993
     47 H47         5.5415   -7.7259    1.4598 H         1 <1>         0.0993
     48 H48         4.0717   -6.0568   -0.0883 H         1 <1>         0.3202
     49 H49         1.5693   -6.2029   -0.5943 H         1 <1>         0.1291
     50 H50        -0.5403   -4.9455   -0.4441 H         1 <1>         0.1623
     51 H51        -0.9831   -1.8840    1.1248 H         1 <1>         0.3303
     52 H52        -3.3031   -1.8607    1.3957 H         1 <1>         0.3448
     53 H53        -4.7961   -0.8116    1.6042 H         1 <1>         0.1209
     54 H54        -6.9005    0.4283    1.8925 H         1 <1>         0.1241
     55 H55        -9.6239   -0.1569   -0.0474 H         1 <1>         0.0400
     56 H56       -10.5169    0.9586    1.0141 H         1 <1>         0.0400
     57 H57        -8.7496    1.1021    0.8575 H         1 <1>         0.0400
     58 H58       -10.4497   -2.2317    2.9312 H         1 <1>         0.0378
     59 H59       -11.5096   -0.9882    2.2250 H         1 <1>         0.0378
     60 H60       -10.6167   -2.1037    1.1637 H         1 <1>         0.0378
     61 H61        -8.5152    0.9226    3.3385 H         1 <1>         0.0400
     62 H62       -10.2825    0.7791    3.4951 H         1 <1>         0.0400
     63 H63        -9.2226   -0.4643    4.2012 H         1 <1>         0.0400
     64 H64        -9.0893   -3.2336    1.8338 H         1 <1>         0.1310
     65 H65        -6.9971   -4.4925    1.5380 H         1 <1>         0.1457
     66 H66         1.2142   -2.3500    2.4662 H         1 <1>         0.1357
     67 H67         3.3220   -3.6108    2.3197 H         1 <1>         0.1420
@<TRIPOS>BOND
     1    1    2 1
     2    1   34 1
     3    1   35 1
     4    1   36 1
     5    2    3 1
     6    2    4 1
     7    2    5 1
     8    4   37 1
     9    4   38 1
    10    4   39 1
    11    5    6 1
    12    5   40 1
    13    5   41 1
    14    6    7 1
    15    6   42 1
    16    6   43 1
    17    7    8 1
    18    7   44 1
    19    7   45 1
    20    8    9 1
    21    8   46 1
    22    8   47 1
    23    9   10 2
    24    9   11 am
    25   11   12 1
    26   11   48 1
    27   12   33 ar
    28   12   13 ar
    29   13   14 ar
    30   13   49 1
    31   14   15 ar
    32   14   50 1
    33   15   16 1
    34   15   32 ar
    35   16   17 am
    36   16   51 1
    37   17   18 2
    38   17   19 am
    39   19   20 am
    40   19   52 1
    41   20   21 2
    42   20   22 1
    43   22   31 ar
    44   22   23 ar
    45   23   24 ar
    46   23   53 1
    47   24   25 ar
    48   24   54 1
    49   25   26 1
    50   25   30 ar
    51   26   27 1
    52   26   28 1
    53   26   29 1
    54   27   55 1
    55   27   56 1
    56   27   57 1
    57   28   58 1
    58   28   59 1
    59   28   60 1
    60   29   61 1
    61   29   62 1
    62   29   63 1
    63   30   31 ar
    64   30   64 1
    65   31   65 1
    66   32   33 ar
    67   32   66 1
    68   33   67 1
@<TRIPOS>Similarity
1.0060
@<TRIPOS>ShapeSim
0.7102
@<TRIPOS>PharmSim
0.2958
# END
# Name:		COC1=CN=C2C(=C1C3=CC=CC=C3)C4=C(O2)C=CC(=C4)O
# Created and modified by SHAFTS on Sun Mar 21 16:57:45 2021

# 

@<TRIPOS>MOLECULE
COC1=CN=C2C(=C1C3=CC=CC=C3)C4=C(O2)C=CC(=C4)O
   35    38     0
SMALL
USER_CHARGE


@<TRIPOS>ATOM
      1 C1         -3.8314   -4.7143    1.2233 C.3       1 <1>           -nan
      2 O2         -5.2517   -4.6392    1.3619 O.3       1 <1>           -nan
      3 C3         -5.7932   -3.4005    1.5042 C.ar      1 <1>           -nan
      4 C4         -7.1773   -3.2410    1.6515 C.ar      1 <1>           -nan
      5 C5         -8.0856   -4.4115    1.6568 C.ar      1 <1>           -nan
      6 C6         -9.0170   -4.5793    0.6326 C.ar      1 <1>           -nan
      7 C7         -9.8601   -5.6717    0.6428 C.ar      1 <1>           -nan
      8 C8         -9.7826   -6.5992    1.6662 C.ar      1 <1>           -nan
      9 C9         -8.8611   -6.4378    2.6852 C.ar      1 <1>           -nan
     10 C10        -8.0087   -5.3525    2.6829 C.ar      1 <1>           -nan
     11 C11        -7.6750   -1.9377    1.7942 C.ar      1 <1>           -nan
     12 C12        -6.7898   -0.8516    1.7855 C.ar      1 <1>           -nan
     13 N13        -5.4883   -1.0644    1.6422 N.ar      1 <1>           -nan
     14 C14        -4.9843   -2.2744    1.5118 C.ar      1 <1>           -nan
     15 O15        -7.5081    0.2831    1.9377 O.3       1 <1>           -nan
     16 C16        -8.8303    0.0239    2.0488 C.ar      1 <1>           -nan
     17 C17        -9.0196   -1.3632    1.9675 C.ar      1 <1>           -nan
     18 C18       -10.2995   -1.9027    2.0538 C.ar      1 <1>           -nan
     19 C19       -11.3869   -1.0642    2.2204 C.ar      1 <1>           -nan
     20 O20       -12.6401   -1.5853    2.3054 O.3       1 <1>           -nan
     21 C21       -11.1992    0.3108    2.3014 C.ar      1 <1>           -nan
     22 C22        -9.9339    0.8515    2.2159 C.ar      1 <1>           -nan
     23 H23        -3.3570   -4.2871    2.1068 H         1 <1>           -nan
     24 H24        -3.5312   -5.7569    1.1181 H         1 <1>           -nan
     25 H25        -3.5226   -4.1563    0.3394 H         1 <1>           -nan
     26 H26        -9.0786   -3.8557   -0.1667 H         1 <1>           -nan
     27 H27       -10.5820   -5.8026   -0.1497 H         1 <1>           -nan
     28 H28       -10.4446   -7.4526    1.6699 H         1 <1>           -nan
     29 H29        -8.8055   -7.1650    3.4818 H         1 <1>           -nan
     30 H30        -7.2895   -5.2277    3.4789 H         1 <1>           -nan
     31 H31        -3.9168   -2.3914    1.3984 H         1 <1>           -nan
     32 H32       -10.4430   -2.9714    1.9906 H         1 <1>           -nan
     33 H33       -12.9168   -1.7991    3.2070 H         1 <1>           -nan
     34 H34       -12.0517    0.9610    2.4316 H         1 <1>           -nan
     35 H35        -9.7998    1.9212    2.2803 H         1 <1>           -nan
@<TRIPOS>BOND
     1    1    2 1
     2    1   23 1
     3    1   24 1
     4    1   25 1
     5    2    3 1
     6    3   14 ar
     7    3    4 ar
     8    4    5 1
     9    4   11 ar
    10    5   10 ar
    11    5    6 ar
    12    6    7 ar
    13    6   26 1
    14    7    8 ar
    15    7   27 1
    16    8    9 ar
    17    8   28 1
    18    9   10 ar
    19    9   29 1
    20   10   30 1
    21   11   17 1
    22   11   12 ar
    23   12   13 ar
    24   12   15 1
    25   13   14 ar
    26   14   31 1
    27   15   16 1
    28   16   22 ar
    29   16   17 ar
    30   17   18 ar
    31   18   19 ar
    32   18   32 1
    33   19   20 1
    34   19   21 ar
    35   20   33 1
    36   21   22 ar
    37   21   34 1
    38   22   35 1
@<TRIPOS>Similarity
1.0050
@<TRIPOS>ShapeSim
0.5518
@<TRIPOS>PharmSim
0.4532
# END
# Name:		O=C(NC1=C(C=CC=C1)C2=CN3C(SC=C3CN4CCNCC4)=N2)C5=NC6=C(N=C5)C=CC=C6
# Created and modified by SHAFTS on Sun Mar 21 16:57:45 2021

# 

@<TRIPOS>MOLECULE
O=C(NC1=C(C=CC=C1)C2=CN3C(SC=C3CN4CCNCC4)=N2)C5=NC6=C(N=C5)C=CC=C6
   58    63     0
SMALL
USER_CHARGE


@<TRIPOS>ATOM
      1 O1         -4.3307   -4.8337    1.2595 O.2       1 <1>        -0.4506
      2 C2         -4.3818   -3.6234    1.3564 C.2       1 <1>         0.1732
      3 N3         -3.2497   -2.8943    1.2996 N.am      1 <1>        -0.2777
      4 C4         -2.0099   -3.5341    1.2259 C.ar      1 <1>        -0.0166
      5 C5         -1.8797   -4.7208    0.5202 C.ar      1 <1>        -0.0537
      6 C6         -0.6524   -5.3524    0.4487 C.ar      1 <1>        -0.0902
      7 C7          0.4517   -4.8067    1.0790 C.ar      1 <1>        -0.0951
      8 C8          0.3371   -3.6258    1.7852 C.ar      1 <1>        -0.0701
      9 C9         -0.8926   -2.9767    1.8592 C.ar      1 <1>        -0.0055
     10 C10        -1.0211   -1.7081    2.6165 C.2       1 <1>         0.0059
     11 C11        -0.0063   -1.0193    3.1935 C.2       1 <1>        -0.0102
     12 N12        -0.5590    0.1038    3.7967 N.pl3     1 <1>        -0.3209
     13 C13        -0.1452    1.1942    4.5277 C.2       1 <1>        -0.0583
     14 C14         1.3111    1.3839    4.8661 C.3       1 <1>        -0.1300
     15 N15         1.6332    0.6288    6.0843 N.3       1 <1>         0.3387
     16 C16         0.6192    0.8505    7.1249 C.3       1 <1>        -0.1885
     17 C17         0.9586    0.0022    8.3525 C.3       1 <1>        -0.1175
     18 N18         2.2882    0.3750    8.8530 N.4       1 <1>         0.4290
     19 H19         2.2934    1.3540    9.0968 H         1 <1>         0.1556
     20 H20         2.5067   -0.1760    9.6696 H         1 <1>         0.1632
     21 C21         3.2932    0.1249    7.8113 C.3       1 <1>        -0.1173
     22 C22         2.9733    0.9742    6.5792 C.3       1 <1>        -0.1870
     23 C23        -1.0488    2.0715    4.9267 C.2       1 <1>         0.0196
     24 S24        -2.6008    1.4676    4.3195 S.3       1 <1>        -0.0193
     25 C25        -1.8967    0.0367    3.5509 C.2       1 <1>         0.0877
     26 N26        -2.1665   -1.0358    2.8460 N.2       1 <1>        -0.3517
     27 C27        -5.6896   -2.9487    1.5306 C.ar      1 <1>         0.1402
     28 C28        -6.8670   -3.7142    1.5890 C.ar      1 <1>         0.0497
     29 N29        -8.0341   -3.1332    1.7430 N.ar      1 <1>        -0.3554
     30 C30        -8.1056   -1.8015    1.8459 C.ar      1 <1>         0.0106
     31 C31        -9.3417   -1.1535    2.0119 C.ar      1 <1>        -0.0433
     32 C32        -9.3848    0.2027    2.1141 C.ar      1 <1>        -0.0772
     33 C33        -8.2184    0.9654    2.0568 C.ar      1 <1>        -0.0784
     34 C34        -7.0035    0.3757    1.8967 C.ar      1 <1>        -0.0464
     35 C35        -6.9172   -1.0258    1.7875 C.ar      1 <1>         0.0154
     36 N36        -5.7394   -1.6317    1.6354 N.ar      1 <1>        -0.3301
     37 H37        -3.2956   -1.9255    1.3101 H         1 <1>         0.3486
     38 H38        -2.7379   -5.1520    0.0263 H         1 <1>         0.1485
     39 H39        -0.5549   -6.2767   -0.1015 H         1 <1>         0.1276
     40 H40         1.4072   -5.3066    1.0186 H         1 <1>         0.1199
     41 H41         1.2014   -3.2036    2.2762 H         1 <1>         0.1338
     42 H42         1.0384   -1.2929    3.1861 H         1 <1>         0.2041
     43 H43         1.9258    1.0227    4.0415 H         1 <1>         0.0999
     44 H44         1.5107    2.4426    5.0315 H         1 <1>         0.0784
     45 H45         0.6078    1.9044    7.4030 H         1 <1>         0.0424
     46 H46        -0.3612    0.5637    6.7445 H         1 <1>         0.0782
     47 H47         0.2155    0.1760    9.1308 H         1 <1>         0.0989
     48 H48         0.9565   -1.0524    8.0772 H         1 <1>         0.0989
     49 H49         4.2811    0.3896    8.1885 H         1 <1>         0.0990
     50 H50         3.2792   -0.9304    7.5388 H         1 <1>         0.0990
     51 H51         3.7103    0.7776    5.8007 H         1 <1>         0.0857
     52 H52         3.0007    2.0301    6.8482 H         1 <1>         0.0427
     53 H53        -0.8778    2.9687    5.5030 H         1 <1>         0.1909
     54 H54        -6.8110   -4.7895    1.5062 H         1 <1>         0.2462
     55 H55       -10.2539   -1.7297    2.0578 H         1 <1>         0.1547
     56 H56       -10.3369    0.6963    2.2413 H         1 <1>         0.1402
     57 H57        -8.2809    2.0403    2.1406 H         1 <1>         0.1362
     58 H58        -6.1090    0.9792    1.8534 H         1 <1>         0.1481
@<TRIPOS>BOND
     1    1    2 2
     2    2    3 am
     3    2   27 1
     4    3    4 1
     5    3   37 1
     6    4    9 ar
     7    4    5 ar
     8    5    6 ar
     9    5   38 1
    10    6    7 ar
    11    6   39 1
    12    7    8 ar
    13    7   40 1
    14    8    9 ar
    15    8   41 1
    16    9   10 1
    17   10   26 1
    18   10   11 2
    19   11   12 1
    20   11   42 1
    21   12   25 1
    22   12   13 1
    23   13   14 1
    24   13   23 2
    25   14   15 1
    26   14   43 1
    27   14   44 1
    28   15   22 1
    29   15   16 1
    30   16   17 1
    31   16   45 1
    32   16   46 1
    33   17   18 1
    34   17   47 1
    35   17   48 1
    36   18   19 1
    37   18   20 1
    38   18   21 1
    39   21   22 1
    40   21   49 1
    41   21   50 1
    42   22   51 1
    43   22   52 1
    44   23   24 1
    45   23   53 1
    46   24   25 1
    47   25   26 2
    48   27   36 ar
    49   27   28 ar
    50   28   29 ar
    51   28   54 1
    52   29   30 ar
    53   30   35 ar
    54   30   31 ar
    55   31   32 ar
    56   31   55 1
    57   32   33 ar
    58   32   56 1
    59   33   34 ar
    60   33   57 1
    61   34   35 ar
    62   34   58 1
    63   35   36 ar
@<TRIPOS>Similarity
1.0047
@<TRIPOS>ShapeSim
0.6165
@<TRIPOS>PharmSim
0.3882
# END
# Name:		CC1COCCN1C2=NC(=NC3=C2C=CC(=N3)C4=CC(=C(C=C4)OC)CO)N5CCOCC5C
# Created and modified by SHAFTS on Sun Mar 21 16:57:45 2021

# 

@<TRIPOS>MOLECULE
CC1COCCN1C2=NC(=NC3=C2C=CC(=N3)C4=CC(=C(C=C4)OC)CO)N5CCOCC5C
   65    69     0
SMALL
USER_CHARGE


@<TRIPOS>ATOM
      1 C1          0.2217   -5.8382    0.6345 C.3       1 <1>         0.0256
      2 O2          0.0205   -4.4446    0.8788 O.3       1 <1>        -0.4117
      3 C3         -1.2619   -4.0241    1.0308 C.ar      1 <1>         0.0017
      4 C4         -2.3046   -4.9379    0.9521 C.ar      1 <1>        -0.0601
      5 C5         -3.6074   -4.5143    1.1061 C.ar      1 <1>        -0.0752
      6 C6         -3.8776   -3.1665    1.3417 C.ar      1 <1>        -0.0194
      7 C7         -5.2766   -2.7079    1.5082 C.ar      1 <1>         0.0049
      8 C8         -6.3084   -3.6548    1.5374 C.ar      1 <1>        -0.0346
      9 C9         -7.6032   -3.2436    1.6910 C.ar      1 <1>        -0.0457
     10 C10        -7.8511   -1.8698    1.8152 C.ar      1 <1>         0.0263
     11 C11        -6.7656   -0.9590    1.7782 C.ar      1 <1>         0.0570
     12 N12        -5.5222   -1.4135    1.6314 N.ar      1 <1>        -0.3292
     13 N13        -7.0252    0.3512    1.8993 N.ar      1 <1>        -0.3327
     14 C14        -8.2652    0.7780    2.0492 C.ar      1 <1>        -0.0635
     15 N15        -8.4866    2.1366    2.1697 N.3       1 <1>         0.4072
     16 C16        -7.8197    2.6753    3.3641 C.3       1 <1>        -0.1147
     17 C17        -8.1395    4.1670    3.4915 C.3       1 <1>        -0.0068
     18 O18        -7.7354    4.8399    2.2960 O.3       1 <1>        -0.4592
     19 C19        -8.3663    4.3410    1.1132 C.3       1 <1>        -0.0081
     20 C20        -8.0487    2.8511    0.9617 C.3       1 <1>        -0.1269
     21 H21        -6.9747    2.7193    0.8303 H         1 <1>         0.0536
     22 C22        -8.7849    2.2932   -0.2579 C.3       1 <1>        -0.0716
     23 N23        -9.3105   -0.0429    2.0889 N.ar      1 <1>        -0.3655
     24 C24        -9.1602   -1.3555    1.9782 C.ar      1 <1>        -0.1125
     25 N25       -10.2500   -2.1977    2.0210 N.3       1 <1>         0.3895
     26 C26       -10.8701   -2.1894    3.3538 C.3       1 <1>        -0.1267
     27 C27       -12.0369   -3.1806    3.3741 C.3       1 <1>        -0.0088
     28 O28       -12.9658   -2.8368    2.3425 O.3       1 <1>        -0.4596
     29 C29       -12.3955   -2.8356    1.0311 C.3       1 <1>        -0.0093
     30 C30       -11.2324   -1.8410    0.9870 C.3       1 <1>        -0.1376
     31 H31       -11.6071   -0.8344    1.1729 H         1 <1>         0.0595
     32 C32       -10.5677   -1.8927   -0.3901 C.3       1 <1>        -0.0738
     33 C33        -2.8278   -2.2511    1.4208 C.ar      1 <1>        -0.0438
     34 C34        -1.5273   -2.6818    1.2707 C.ar      1 <1>        -0.0246
     35 C35        -0.3927   -1.6937    1.3560 C.3       1 <1>         0.0021
     36 O36        -0.9166   -0.3862    1.5961 O.3       1 <1>        -0.4854
     37 H37        -0.1786   -6.4147    1.4685 H         1 <1>         0.0907
     38 H38        -0.2912   -6.1238   -0.2840 H         1 <1>         0.0907
     39 H39         1.2881   -6.0389    0.5326 H         1 <1>         0.1196
     40 H40        -2.0948   -5.9815    0.7697 H         1 <1>         0.1203
     41 H41        -4.4180   -5.2254    1.0440 H         1 <1>         0.1363
     42 H42        -6.0818   -4.7063    1.4385 H         1 <1>         0.1396
     43 H43        -8.4129   -3.9580    1.7156 H         1 <1>         0.1734
     44 H44        -8.1777    2.1494    4.2492 H         1 <1>         0.0680
     45 H45        -6.7420    2.5407    3.2709 H         1 <1>         0.0537
     46 H46        -9.2116    4.2982    3.6384 H         1 <1>         0.0972
     47 H47        -7.6013    4.5832    4.3430 H         1 <1>         0.1334
     48 H48        -9.4449    4.4772    1.1910 H         1 <1>         0.0977
     49 H49        -7.9920    4.8830    0.2448 H         1 <1>         0.1339
     50 H50        -8.5399    2.8917   -1.1354 H         1 <1>         0.0487
     51 H51        -8.4795    1.2604   -0.4256 H         1 <1>         0.0345
     52 H52        -9.8600    2.3302   -0.0817 H         1 <1>         0.0487
     53 H53       -10.1317   -2.4812    4.1007 H         1 <1>         0.0646
     54 H54       -11.2390   -1.1884    3.5774 H         1 <1>         0.0503
     55 H55       -11.6605   -4.1892    3.2036 H         1 <1>         0.0968
     56 H56       -12.5354   -3.1363    4.3424 H         1 <1>         0.1330
     57 H57       -12.0296   -3.8342    0.7923 H         1 <1>         0.0976
     58 H58       -13.1533   -2.5418    0.3047 H         1 <1>         0.1338
     59 H59       -11.3185   -1.7249   -1.1623 H         1 <1>         0.0465
     60 H60        -9.8023   -1.1193   -0.4533 H         1 <1>         0.0323
     61 H61       -10.1090   -2.8706   -0.5356 H         1 <1>         0.0465
     62 H62        -3.0337   -1.2067    1.6031 H         1 <1>         0.1757
     63 H63         0.2728   -1.9742    2.1724 H         1 <1>         0.1025
     64 H64         0.1624   -1.6961    0.4178 H         1 <1>         0.1025
     65 H65        -0.2409    0.3022    1.6627 H         1 <1>         0.3312
@<TRIPOS>BOND
     1    1    2 1
     2    1   37 1
     3    1   38 1
     4    1   39 1
     5    2    3 1
     6    3   34 ar
     7    3    4 ar
     8    4    5 ar
     9    4   40 1
    10    5    6 ar
    11    5   41 1
    12    6    7 1
    13    6   33 ar
    14    7   12 ar
    15    7    8 ar
    16    8    9 ar
    17    8   42 1
    18    9   10 ar
    19    9   43 1
    20   10   24 ar
    21   10   11 ar
    22   11   12 ar
    23   11   13 ar
    24   13   14 ar
    25   14   15 1
    26   14   23 ar
    27   15   20 1
    28   15   16 1
    29   16   17 1
    30   16   44 1
    31   16   45 1
    32   17   18 1
    33   17   46 1
    34   17   47 1
    35   18   19 1
    36   19   20 1
    37   19   48 1
    38   19   49 1
    39   20   21 1
    40   20   22 1
    41   22   50 1
    42   22   51 1
    43   22   52 1
    44   23   24 ar
    45   24   25 1
    46   25   30 1
    47   25   26 1
    48   26   27 1
    49   26   53 1
    50   26   54 1
    51   27   28 1
    52   27   55 1
    53   27   56 1
    54   28   29 1
    55   29   30 1
    56   29   57 1
    57   29   58 1
    58   30   31 1
    59   30   32 1
    60   32   59 1
    61   32   60 1
    62   32   61 1
    63   33   34 ar
    64   33   62 1
    65   34   35 1
    66   35   36 1
    67   35   63 1
    68   35   64 1
    69   36   65 1
@<TRIPOS>Similarity
1.0037
@<TRIPOS>ShapeSim
0.6436
@<TRIPOS>PharmSim
0.3601
# END
# Name:		C1=CC(=C(C(=C1)F)NC(=S)N2C(=NC(=N2)NC3=CC=C(C=C3)S(=O)(=O)N)N)F
# Created and modified by SHAFTS on Sun Mar 21 16:57:45 2021

# 

@<TRIPOS>MOLECULE
C1=CC(=C(C(=C1)F)NC(=S)N2C(=NC(=N2)NC3=CC=C(C=C3)S(=O)(=O)N)N)F
   41    43     0
SMALL
USER_CHARGE


@<TRIPOS>ATOM
      1 N1         -0.7670   -1.0840    1.5039 N.pl3     1 <1>        -0.3156
      2 C2         -1.5173   -2.2365    1.3883 C.2       1 <1>         0.1022
      3 N3         -2.8236   -2.3267    1.5121 N.2       1 <1>        -0.2775
      4 C4         -3.2075   -3.5972    1.3370 C.2       1 <1>         0.0972
      5 N5         -4.5212   -4.0593    1.3983 N.pl3     1 <1>        -0.2907
      6 C6         -5.5755   -3.1521    1.5344 C.ar      1 <1>        -0.0295
      7 C7         -6.7234   -3.5176    2.2261 C.ar      1 <1>        -0.0485
      8 C8         -7.7634   -2.6189    2.3587 C.ar      1 <1>         0.0038
      9 C9         -7.6630   -1.3561    1.8039 C.ar      1 <1>         0.2877
     10 S10        -8.9922   -0.2123    1.9755 S.o2      1 <1>        -0.0681
     11 N11        -8.7245    0.6454    3.3666 N.am      1 <1>        -0.1587
     12 O12        -8.8671    0.7122    0.9037 O.2       1 <1>        -0.0828
     13 O13       -10.1619   -0.9873    2.2008 O.2       1 <1>        -0.0828
     14 C14        -6.5215   -0.9888    1.1151 C.ar      1 <1>         0.0073
     15 C15        -5.4756   -1.8809    0.9833 C.ar      1 <1>        -0.0426
     16 N16        -2.1523   -4.3376    1.0988 N.2       1 <1>        -0.2700
     17 N17        -1.0378   -3.4836    1.1198 N.am      1 <1>        -0.1924
     18 C18         0.2497   -3.8294    0.9219 C.2       1 <1>         0.0558
     19 S19         1.4586   -2.6197    0.8437 S.2       1 <1>        -0.2394
     20 N20         0.5855   -5.1275    0.7858 N.am      1 <1>        -0.2851
     21 C21         1.9321   -5.4933    0.6583 C.ar      1 <1>         0.0717
     22 C22         2.3072   -6.4588   -0.2686 C.ar      1 <1>         0.1133
     23 F23         1.3736   -7.0461   -1.0487 F         1 <1>        -0.2451
     24 C24         3.6377   -6.8171   -0.3914 C.ar      1 <1>        -0.0290
     25 C25         4.5938   -6.2162    0.4063 C.ar      1 <1>        -0.0714
     26 C26         4.2247   -5.2556    1.3297 C.ar      1 <1>        -0.0207
     27 C27         2.8971   -4.8873    1.4543 C.ar      1 <1>         0.1307
     28 F28         2.5373   -3.9487    2.3570 F         1 <1>        -0.2199
     29 H29         0.2017   -1.1331    1.4948 H         1 <1>         0.3140
     30 H30        -1.2083   -0.2246    1.5903 H         1 <1>         0.3061
     31 H31        -4.7036   -5.0107    1.3464 H         1 <1>         0.3499
     32 H32        -6.8026   -4.5038    2.6593 H         1 <1>         0.1340
     33 H33        -8.6563   -2.9024    2.8960 H         1 <1>         0.1599
     34 H34        -7.9405    0.4605    3.9070 H         1 <1>         0.3206
     35 H35        -9.3516    1.3326    3.6409 H         1 <1>         0.3206
     36 H36        -6.4462   -0.0017    0.6833 H         1 <1>         0.1608
     37 H37        -4.5843   -1.5933    0.4455 H         1 <1>         0.1466
     38 H38        -0.1051   -5.8086    0.7761 H         1 <1>         0.3569
     39 H39         3.9298   -7.5675   -1.1112 H         1 <1>         0.1435
     40 H40         5.6318   -6.4980    0.3080 H         1 <1>         0.1518
     41 H41         4.9744   -4.7890    1.9515 H         1 <1>         0.1455
@<TRIPOS>BOND
     1    1    2 1
     2    1   29 1
     3    1   30 1
     4    2   17 1
     5    2    3 2
     6    3    4 1
     7    4    5 1
     8    4   16 2
     9    5    6 1
    10    5   31 1
    11    6   15 ar
    12    6    7 ar
    13    7    8 ar
    14    7   32 1
    15    8    9 ar
    16    8   33 1
    17    9   10 1
    18    9   14 ar
    19   10   11 am
    20   10   12 2
    21   10   13 2
    22   11   34 1
    23   11   35 1
    24   14   15 ar
    25   14   36 1
    26   15   37 1
    27   16   17 1
    28   17   18 am
    29   18   19 2
    30   18   20 am
    31   20   21 1
    32   20   38 1
    33   21   27 ar
    34   21   22 ar
    35   22   23 1
    36   22   24 ar
    37   24   25 ar
    38   24   39 1
    39   25   26 ar
    40   25   40 1
    41   26   27 ar
    42   26   41 1
    43   27   28 1
@<TRIPOS>Similarity
1.0034
@<TRIPOS>ShapeSim
0.7473
@<TRIPOS>PharmSim
0.2561
# END
# Name:		CC1CN(CC(O1)C)C2=NC3=C(C=CC(=N3)C4=CC(=C(C=C4)OC)CO)C(=N2)N5CCOCC5
# Created and modified by SHAFTS on Sun Mar 21 16:57:45 2021

# 

@<TRIPOS>MOLECULE
CC1CN(CC(O1)C)C2=NC3=C(C=CC(=N3)C4=CC(=C(C=C4)OC)CO)C(=N2)N5CCOCC5
   65    69     0
SMALL
USER_CHARGE


@<TRIPOS>ATOM
      1 C1          0.2215   -5.8382    0.6343 C.3       1 <1>         0.0256
      2 O2          0.0204   -4.4447    0.8785 O.3       1 <1>        -0.4117
      3 C3         -1.2619   -4.0242    1.0307 C.ar      1 <1>         0.0017
      4 C4         -2.3047   -4.9380    0.9519 C.ar      1 <1>        -0.0600
      5 C5         -3.6075   -4.5145    1.1060 C.ar      1 <1>        -0.0749
      6 C6         -3.8777   -3.1665    1.3416 C.ar      1 <1>        -0.0184
      7 C7         -5.2766   -2.7079    1.5082 C.ar      1 <1>         0.0043
      8 C8         -6.3084   -3.6549    1.5374 C.ar      1 <1>        -0.0366
      9 C9         -7.6033   -3.2437    1.6910 C.ar      1 <1>        -0.0508
     10 C10        -7.8512   -1.8698    1.8151 C.ar      1 <1>         0.0238
     11 C11        -6.7656   -0.9591    1.7782 C.ar      1 <1>         0.0554
     12 N12        -5.5222   -1.4135    1.6314 N.ar      1 <1>        -0.3296
     13 N13        -7.0252    0.3512    1.8992 N.ar      1 <1>        -0.3357
     14 C14        -8.2651    0.7780    2.0493 C.ar      1 <1>        -0.0705
     15 N15        -8.4866    2.1367    2.1697 N.3       1 <1>         0.4107
     16 C16        -9.2092    2.4445    3.4124 C.3       1 <1>        -0.1126
     17 C17        -9.4853    3.9490    3.4765 C.3       1 <1>        -0.0169
     18 H18       -10.1358    4.2352    2.6499 H         1 <1>         0.1044
     19 C19       -10.1671    4.2873    4.8038 C.3       1 <1>        -0.0346
     20 O20        -8.2484    4.6602    3.3791 O.3       1 <1>        -0.4616
     21 C21        -7.5186    4.3845    2.1804 C.3       1 <1>        -0.0161
     22 H22        -8.1118    4.6834    1.3162 H         1 <1>         0.1045
     23 C23        -6.2032    5.1658    2.1919 C.3       1 <1>        -0.0316
     24 C24        -7.2226    2.8844    2.1032 C.3       1 <1>        -0.1110
     25 N25        -9.3105   -0.0429    2.0889 N.ar      1 <1>        -0.3806
     26 C26        -9.1601   -1.3555    1.9782 C.ar      1 <1>        -0.1200
     27 N27       -10.2500   -2.1977    2.0211 N.3       1 <1>         0.3914
     28 C28       -10.8396   -2.3647    0.6848 C.3       1 <1>        -0.1267
     29 C29       -12.0071   -3.3517    0.7678 C.3       1 <1>        -0.0081
     30 O30       -12.9588   -2.8773    1.7240 O.3       1 <1>        -0.4615
     31 C31       -12.4184   -2.7039    3.0367 C.3       1 <1>        -0.0101
     32 C32       -11.2552   -1.7104    2.9768 C.3       1 <1>        -0.1265
     33 C33        -2.8278   -2.2512    1.4206 C.ar      1 <1>        -0.0434
     34 C34        -1.5274   -2.6819    1.2705 C.ar      1 <1>        -0.0245
     35 C35        -0.3926   -1.6939    1.3556 C.3       1 <1>         0.0021
     36 O36        -0.9166   -0.3862    1.5958 O.3       1 <1>        -0.4854
     37 H37        -0.2913   -6.1239   -0.2841 H         1 <1>         0.0907
     38 H38         1.2880   -6.0391    0.5324 H         1 <1>         0.1196
     39 H39        -0.1787   -6.4148    1.4683 H         1 <1>         0.0907
     40 H40        -2.0949   -5.9816    0.7695 H         1 <1>         0.1203
     41 H41        -4.4181   -5.2254    1.0440 H         1 <1>         0.1363
     42 H42        -6.0818   -4.7062    1.4385 H         1 <1>         0.1374
     43 H43        -8.4130   -3.9580    1.7158 H         1 <1>         0.1646
     44 H44       -10.1534    1.9001    3.4287 H         1 <1>         0.0781
     45 H45        -8.6030    2.1489    4.2687 H         1 <1>         0.0494
     46 H46        -9.5155    4.0023    5.6298 H         1 <1>         0.0469
     47 H47       -10.3633    5.3585    4.8488 H         1 <1>         0.0540
     48 H48       -11.1079    3.7421    4.8783 H         1 <1>         0.0540
     49 H49        -5.6098    4.8655    3.0555 H         1 <1>         0.0547
     50 H50        -5.6475    4.9553    1.2782 H         1 <1>         0.0619
     51 H51        -6.4152    6.2334    2.2504 H         1 <1>         0.0547
     52 H52        -6.5846    2.5959    2.9386 H         1 <1>         0.0569
     53 H53        -6.7166    2.6612    1.1639 H         1 <1>         0.0784
     54 H54       -11.2018   -1.4020    0.3238 H         1 <1>         0.0429
     55 H55       -10.0849   -2.7505   -0.0005 H         1 <1>         0.0645
     56 H56       -12.4833   -3.4351   -0.2092 H         1 <1>         0.1332
     57 H57       -11.6363   -4.3289    1.0771 H         1 <1>         0.1043
     58 H58       -13.1921   -2.3187    3.7009 H         1 <1>         0.1308
     59 H59       -12.0596   -3.6622    3.4122 H         1 <1>         0.0946
     60 H60       -10.8037   -1.6183    3.9646 H         1 <1>         0.0644
     61 H61       -11.6240   -0.7372    2.6525 H         1 <1>         0.0500
     62 H62        -3.0337   -1.2068    1.6028 H         1 <1>         0.1757
     63 H63         0.2728   -1.9742    2.1722 H         1 <1>         0.1025
     64 H64         0.1623   -1.6962    0.4175 H         1 <1>         0.1025
     65 H65        -0.2408    0.3022    1.6624 H         1 <1>         0.3312
@<TRIPOS>BOND
     1    1    2 1
     2    1   37 1
     3    1   38 1
     4    1   39 1
     5    2    3 1
     6    3   34 ar
     7    3    4 ar
     8    4    5 ar
     9    4   40 1
    10    5    6 ar
    11    5   41 1
    12    6    7 1
    13    6   33 ar
    14    7   12 ar
    15    7    8 ar
    16    8    9 ar
    17    8   42 1
    18    9   10 ar
    19    9   43 1
    20   10   26 ar
    21   10   11 ar
    22   11   12 ar
    23   11   13 ar
    24   13   14 ar
    25   14   15 1
    26   14   25 ar
    27   15   24 1
    28   15   16 1
    29   16   17 1
    30   16   44 1
    31   16   45 1
    32   17   18 1
    33   17   19 1
    34   17   20 1
    35   19   46 1
    36   19   47 1
    37   19   48 1
    38   20   21 1
    39   21   22 1
    40   21   23 1
    41   21   24 1
    42   23   49 1
    43   23   50 1
    44   23   51 1
    45   24   52 1
    46   24   53 1
    47   25   26 ar
    48   26   27 1
    49   27   32 1
    50   27   28 1
    51   28   29 1
    52   28   54 1
    53   28   55 1
    54   29   30 1
    55   29   56 1
    56   29   57 1
    57   30   31 1
    58   31   32 1
    59   31   58 1
    60   31   59 1
    61   32   60 1
    62   32   61 1
    63   33   34 ar
    64   33   62 1
    65   34   35 1
    66   35   36 1
    67   35   63 1
    68   35   64 1
    69   36   65 1
@<TRIPOS>Similarity
1.0034
@<TRIPOS>ShapeSim
0.6432
@<TRIPOS>PharmSim
0.3601
# END
# Name:		NCCCN(C)C1=NC(C2=CC=C(N(C)C)C=C2)=CC3=NC=CC=C31
# Created and modified by SHAFTS on Sun Mar 21 16:57:45 2021

# 

@<TRIPOS>MOLECULE
NCCCN(C)C1=NC(C2=CC=C(N(C)C)C=C2)=CC3=NC=CC=C31
   51    53     0
SMALL
USER_CHARGE


@<TRIPOS>ATOM
      1 C1         -2.4753   -8.5955    0.7963 C.3       1 <1>        -0.0339
      2 N2         -1.9978   -7.2123    0.8671 N.pl3     1 <1>        -0.4225
      3 C3         -0.5647   -6.9260    0.7655 C.3       1 <1>        -0.0353
      4 C4         -2.9077   -6.1681    1.0312 C.ar      1 <1>        -0.0721
      5 C5         -2.4537   -4.8551    1.0925 C.ar      1 <1>        -0.0660
      6 C6         -3.3509   -3.8216    1.2541 C.ar      1 <1>        -0.0753
      7 C7         -4.7151   -4.0933    1.3563 C.ar      1 <1>        -0.0382
      8 C8         -5.6820   -2.9835    1.5297 C.ar      1 <1>        -0.0111
      9 N9         -5.2301   -1.7290    1.5805 N.ar      1 <1>        -0.3975
     10 C10        -6.0333   -0.6946    1.7324 C.ar      1 <1>        -0.1427
     11 N11        -5.5114    0.5855    1.7781 N.3       1 <1>         0.3781
     12 C12        -4.6580    0.7641    2.9604 C.3       1 <1>        -0.1543
     13 C13        -4.7758    0.8985    0.5457 C.3       1 <1>        -0.1620
     14 C14        -4.4296    2.3886    0.5230 C.3       1 <1>        -0.0871
     15 C15        -3.6635    2.7146   -0.7607 C.3       1 <1>        -0.1184
     16 N16        -3.3311    4.1453   -0.7825 N.4       1 <1>         0.4446
     17 H17        -2.8258    4.3603   -1.6291 H         1 <1>         0.1474
     18 H18        -4.1807    4.6885   -0.7508 H         1 <1>         0.1474
     19 H19        -2.7583    4.3698    0.0172 H         1 <1>         0.1474
     20 C20        -7.4270   -0.8939    1.8480 C.ar      1 <1>        -0.0163
     21 C21        -8.3186    0.1762    2.0103 C.ar      1 <1>        -0.0612
     22 C22        -9.6536   -0.1073    2.1137 C.ar      1 <1>        -0.0570
     23 C23       -10.0916   -1.4269    2.0568 C.ar      1 <1>        -0.0272
     24 N24        -9.2538   -2.4265    1.9048 N.ar      1 <1>        -0.3841
     25 C25        -7.9404   -2.2153    1.7980 C.ar      1 <1>        -0.0070
     26 C26        -7.0302   -3.2735    1.6289 C.ar      1 <1>        -0.0076
     27 C27        -5.1681   -5.4111    1.2945 C.ar      1 <1>        -0.0757
     28 C28        -4.2677   -6.4409    1.1275 C.ar      1 <1>        -0.0654
     29 H29        -1.6263   -9.2669    0.6678 H         1 <1>         0.1009
     30 H30        -3.0006   -8.8461    1.7180 H         1 <1>         0.0865
     31 H31        -3.1545   -8.7026   -0.0495 H         1 <1>         0.0865
     32 H32        -0.2981   -6.7722   -0.2801 H         1 <1>         0.0790
     33 H33        -0.3325   -6.0267    1.3358 H         1 <1>         0.0933
     34 H34         0.0029   -7.7663    1.1653 H         1 <1>         0.0933
     35 H35        -1.3973   -4.6451    1.0137 H         1 <1>         0.1152
     36 H36        -2.9979   -2.8020    1.3019 H         1 <1>         0.1408
     37 H37        -3.7770    0.1283    2.8720 H         1 <1>         0.0299
     38 H38        -4.3481    1.8067    3.0306 H         1 <1>         0.0514
     39 H39        -5.2157    0.4896    3.8559 H         1 <1>         0.0514
     40 H40        -3.8579    0.3116    0.5115 H         1 <1>         0.0418
     41 H41        -5.3945    0.6559   -0.3183 H         1 <1>         0.0561
     42 H42        -5.3475    2.9754    0.5572 H         1 <1>         0.0688
     43 H43        -3.8108    2.6311    1.3870 H         1 <1>         0.0617
     44 H44        -2.7456    2.1277   -0.7949 H         1 <1>         0.0841
     45 H45        -4.2822    2.4720   -1.6247 H         1 <1>         0.0912
     46 H46        -7.9621    1.1947    2.0528 H         1 <1>         0.1591
     47 H47       -10.3673    0.6934    2.2399 H         1 <1>         0.1261
     48 H48       -11.1482   -1.6344    2.1404 H         1 <1>         0.2228
     49 H49        -7.3777   -4.2950    1.5809 H         1 <1>         0.1570
     50 H50        -6.2240   -5.6238    1.3734 H         1 <1>         0.1387
     51 H51        -4.6181   -7.4614    1.0796 H         1 <1>         0.1173
@<TRIPOS>BOND
     1    1    2 1
     2    1   29 1
     3    1   30 1
     4    1   31 1
     5    2    3 1
     6    2    4 1
     7    3   32 1
     8    3   33 1
     9    3   34 1
    10    4   28 ar
    11    4    5 ar
    12    5    6 ar
    13    5   35 1
    14    6    7 ar
    15    6   36 1
    16    7    8 1
    17    7   27 ar
    18    8   26 ar
    19    8    9 ar
    20    9   10 ar
    21   10   11 1
    22   10   20 ar
    23   11   12 1
    24   11   13 1
    25   12   37 1
    26   12   38 1
    27   12   39 1
    28   13   14 1
    29   13   40 1
    30   13   41 1
    31   14   15 1
    32   14   42 1
    33   14   43 1
    34   15   16 1
    35   15   44 1
    36   15   45 1
    37   16   17 1
    38   16   18 1
    39   16   19 1
    40   20   25 ar
    41   20   21 ar
    42   21   22 ar
    43   21   46 1
    44   22   23 ar
    45   22   47 1
    46   23   24 ar
    47   23   48 1
    48   24   25 ar
    49   25   26 ar
    50   26   49 1
    51   27   28 ar
    52   27   50 1
    53   28   51 1
@<TRIPOS>Similarity
1.0033
@<TRIPOS>ShapeSim
0.5971
@<TRIPOS>PharmSim
0.4063
# END
# Name:		S=C1C2=C(NC3=CC=CC=C31)C(OC)=CC=C2OC
# Created and modified by SHAFTS on Sun Mar 21 16:57:45 2021

# 

@<TRIPOS>MOLECULE
S=C1C2=C(NC3=CC=CC=C31)C(OC)=CC=C2OC
   32    34     0
SMALL
USER_CHARGE


@<TRIPOS>ATOM
      1 C1         -0.8778    1.0024   -0.5873 C.3       1 <1>         0.0207
      2 O2         -2.1368    0.4305   -0.2267 O.3       1 <1>        -0.4200
      3 C3         -2.1459   -0.8925    0.0915 C.ar      1 <1>         0.0299
      4 C4         -0.9693   -1.6183    0.0622 C.ar      1 <1>        -0.0555
      5 C5         -0.9604   -2.9665    0.3825 C.ar      1 <1>        -0.0545
      6 C6         -2.1340   -3.6063    0.7393 C.ar      1 <1>         0.0311
      7 O7         -2.1244   -4.9279    1.0511 O.3       1 <1>        -0.3903
      8 C8         -0.8646   -5.5998    0.9904 C.3       1 <1>         0.0368
      9 C9         -3.3322   -2.8816    0.7772 C.ar      1 <1>         0.0404
     10 C10        -3.3409   -1.5145    0.4527 C.ar      1 <1>         0.0172
     11 N11        -4.5231   -0.7960    0.4775 N.pl3     1 <1>        -0.3343
     12 C12        -5.6557   -1.2864    1.0977 C.ar      1 <1>        -0.0353
     13 C13        -6.7247   -0.4415    1.3803 C.ar      1 <1>        -0.0579
     14 C14        -7.8530   -0.9405    1.9956 C.ar      1 <1>        -0.0871
     15 C15        -7.9382   -2.2815    2.3392 C.ar      1 <1>        -0.0873
     16 C16        -6.8906   -3.1358    2.0708 C.ar      1 <1>        -0.0670
     17 C17        -5.7424   -2.6444    1.4504 C.ar      1 <1>        -0.0128
     18 C18        -4.5978   -3.5287    1.1630 C.2       1 <1>        -0.0424
     19 S19        -4.7341   -5.2321    1.2687 S.2       1 <1>        -0.3077
     20 H20        -0.4825    0.4879   -1.4631 H         1 <1>         0.0918
     21 H21        -1.0114    2.0597   -0.8166 H         1 <1>         0.1207
     22 H22        -0.1794    0.8961    0.2428 H         1 <1>         0.0918
     23 H23        -0.0469   -1.1290   -0.2138 H         1 <1>         0.1400
     24 H24        -0.0336   -3.5203    0.3530 H         1 <1>         0.1181
     25 H25        -0.9979   -6.6470    1.2620 H         1 <1>         0.1211
     26 H26        -0.4668   -5.5350   -0.0224 H         1 <1>         0.0921
     27 H27        -0.1684   -5.1299    1.6850 H         1 <1>         0.0921
     28 H28        -4.5573    0.0736    0.0491 H         1 <1>         0.3406
     29 H29        -6.6704    0.6047    1.1179 H         1 <1>         0.1297
     30 H30        -8.6793   -0.2799    2.2128 H         1 <1>         0.1444
     31 H31        -8.8293   -2.6578    2.8195 H         1 <1>         0.1242
     32 H32        -6.9585   -4.1796    2.3394 H         1 <1>         0.1594
@<TRIPOS>BOND
     1    1    2 1
     2    1   20 1
     3    1   21 1
     4    1   22 1
     5    2    3 1
     6    3   10 ar
     7    3    4 ar
     8    4    5 ar
     9    4   23 1
    10    5    6 ar
    11    5   24 1
    12    6    7 1
    13    6    9 ar
    14    7    8 1
    15    8   25 1
    16    8   26 1
    17    8   27 1
    18    9   18 1
    19    9   10 ar
    20   10   11 1
    21   11   12 1
    22   11   28 1
    23   12   17 ar
    24   12   13 ar
    25   13   14 ar
    26   13   29 1
    27   14   15 ar
    28   14   30 1
    29   15   16 ar
    30   15   31 1
    31   16   17 ar
    32   16   32 1
    33   17   18 1
    34   18   19 2
@<TRIPOS>Similarity
1.0031
@<TRIPOS>ShapeSim
0.6308
@<TRIPOS>PharmSim
0.3723
# END
# Name:		S=C1C2=C(NC3=CC=CC=C31)C(OC)=CC=C2OC
# Created and modified by SHAFTS on Sun Mar 21 16:57:45 2021

# 

@<TRIPOS>MOLECULE
S=C1C2=C(NC3=CC=CC=C31)C(OC)=CC=C2OC
   32    34     0
SMALL
USER_CHARGE


@<TRIPOS>ATOM
      1 C1         -0.8778    1.0024   -0.5873 C.3       1 <1>         0.0207
      2 O2         -2.1368    0.4305   -0.2267 O.3       1 <1>        -0.4200
      3 C3         -2.1459   -0.8925    0.0915 C.ar      1 <1>         0.0299
      4 C4         -0.9693   -1.6183    0.0622 C.ar      1 <1>        -0.0555
      5 C5         -0.9604   -2.9665    0.3825 C.ar      1 <1>        -0.0545
      6 C6         -2.1340   -3.6063    0.7393 C.ar      1 <1>         0.0311
      7 O7         -2.1244   -4.9279    1.0511 O.3       1 <1>        -0.3903
      8 C8         -0.8646   -5.5998    0.9904 C.3       1 <1>         0.0368
      9 C9         -3.3322   -2.8816    0.7772 C.ar      1 <1>         0.0404
     10 C10        -3.3409   -1.5145    0.4527 C.ar      1 <1>         0.0172
     11 N11        -4.5231   -0.7960    0.4775 N.pl3     1 <1>        -0.3343
     12 C12        -5.6557   -1.2864    1.0977 C.ar      1 <1>        -0.0353
     13 C13        -6.7247   -0.4415    1.3803 C.ar      1 <1>        -0.0579
     14 C14        -7.8530   -0.9405    1.9956 C.ar      1 <1>        -0.0871
     15 C15        -7.9382   -2.2815    2.3392 C.ar      1 <1>        -0.0873
     16 C16        -6.8906   -3.1358    2.0708 C.ar      1 <1>        -0.0670
     17 C17        -5.7424   -2.6444    1.4504 C.ar      1 <1>        -0.0128
     18 C18        -4.5978   -3.5287    1.1630 C.2       1 <1>        -0.0424
     19 S19        -4.7341   -5.2321    1.2687 S.2       1 <1>        -0.3077
     20 H20        -0.4825    0.4879   -1.4631 H         1 <1>         0.0918
     21 H21        -1.0114    2.0597   -0.8166 H         1 <1>         0.1207
     22 H22        -0.1794    0.8961    0.2428 H         1 <1>         0.0918
     23 H23        -0.0469   -1.1290   -0.2138 H         1 <1>         0.1400
     24 H24        -0.0336   -3.5203    0.3530 H         1 <1>         0.1181
     25 H25        -0.9979   -6.6470    1.2620 H         1 <1>         0.1211
     26 H26        -0.4668   -5.5350   -0.0224 H         1 <1>         0.0921
     27 H27        -0.1684   -5.1299    1.6850 H         1 <1>         0.0921
     28 H28        -4.5573    0.0736    0.0491 H         1 <1>         0.3406
     29 H29        -6.6704    0.6047    1.1179 H         1 <1>         0.1297
     30 H30        -8.6793   -0.2799    2.2128 H         1 <1>         0.1444
     31 H31        -8.8293   -2.6578    2.8195 H         1 <1>         0.1242
     32 H32        -6.9585   -4.1796    2.3394 H         1 <1>         0.1594
@<TRIPOS>BOND
     1    1    2 1
     2    1   20 1
     3    1   21 1
     4    1   22 1
     5    2    3 1
     6    3   10 ar
     7    3    4 ar
     8    4    5 ar
     9    4   23 1
    10    5    6 ar
    11    5   24 1
    12    6    7 1
    13    6    9 ar
    14    7    8 1
    15    8   25 1
    16    8   26 1
    17    8   27 1
    18    9   18 1
    19    9   10 ar
    20   10   11 1
    21   11   12 1
    22   11   28 1
    23   12   17 ar
    24   12   13 ar
    25   13   14 ar
    26   13   29 1
    27   14   15 ar
    28   14   30 1
    29   15   16 ar
    30   15   31 1
    31   16   17 ar
    32   16   32 1
    33   17   18 1
    34   18   19 2
@<TRIPOS>Similarity
1.0031
@<TRIPOS>ShapeSim
0.6308
@<TRIPOS>PharmSim
0.3723
# END
# Name:		O=C(CSC1=NN=C(C2=CC=C(C)C=C2)N1C3=CC=C(Cl)C=C3)C4=CC(O)=C(O)C=C4
# Created and modified by SHAFTS on Sun Mar 21 16:57:45 2021

# 

@<TRIPOS>MOLECULE
O=C(CSC1=NN=C(C2=CC=C(C)C=C2)N1C3=CC=C(Cl)C=C3)C4=CC(O)=C(O)C=C4
   49    52     0
SMALL
USER_CHARGE


@<TRIPOS>ATOM
      1 C1          7.2820   -4.0538    0.2606 C.3       1 <1>        -0.0395
      2 C2          5.7870   -3.9329    0.4064 C.ar      1 <1>        -0.1117
      3 C3          4.9706   -4.9827    0.0250 C.ar      1 <1>        -0.0961
      4 C4          3.6011   -4.8783    0.1555 C.ar      1 <1>        -0.0737
      5 C5          3.0397   -3.7103    0.6740 C.ar      1 <1>        -0.0073
      6 C6          1.5733   -3.5916    0.8170 C.2       1 <1>         0.0773
      7 N7          0.8910   -2.4798    0.9656 N.2       1 <1>        -0.2608
      8 N8         -0.3632   -2.7426    1.0597 N.2       1 <1>        -0.2677
      9 C9         -0.5613   -4.0395    0.9772 C.2       1 <1>         0.1006
     10 S10        -2.1150   -4.8669    1.0549 S.3       1 <1>        -0.0569
     11 C11        -3.2171   -3.4468    1.2664 C.3       1 <1>         0.1194
     12 C12        -4.6426   -3.9267    1.3595 C.2       1 <1>         0.1014
     13 O13        -4.8892   -5.1122    1.2897 O.2       1 <1>        -0.4464
     14 C14        -5.7332   -2.9589    1.5347 C.ar      1 <1>         0.0042
     15 C15        -5.4516   -1.5899    1.6098 C.ar      1 <1>        -0.0687
     16 C16        -6.4763   -0.6846    1.7742 C.ar      1 <1>        -0.0515
     17 C17        -7.7899   -1.1260    1.8658 C.ar      1 <1>         0.0033
     18 O18        -8.7955   -0.2287    2.0278 O.3       1 <1>        -0.4251
     19 C19        -8.0789   -2.4889    1.7914 C.ar      1 <1>         0.0079
     20 O20        -9.3668   -2.9166    1.8807 O.3       1 <1>        -0.4265
     21 C21        -7.0591   -3.4028    1.6215 C.ar      1 <1>        -0.0330
     22 N22         0.6636   -4.6264    0.8138 N.pl3     1 <1>        -0.2765
     23 C23         0.9369   -5.9950    0.6801 C.ar      1 <1>        -0.0170
     24 C24         1.6121   -6.6709    1.6874 C.ar      1 <1>        -0.0493
     25 C25         1.8802   -8.0191    1.5534 C.ar      1 <1>        -0.0556
     26 C26         1.4763   -8.6963    0.4161 C.ar      1 <1>        -0.0033
     27 Cl27        1.8142  -10.3910    0.2507 Cl        1 <1>        -0.1296
     28 C28         0.8031   -8.0248   -0.5894 C.ar      1 <1>        -0.0551
     29 C29         0.5277   -6.6778   -0.4574 C.ar      1 <1>        -0.0498
     30 C30         3.8691   -2.6550    1.0573 C.ar      1 <1>        -0.0641
     31 C31         5.2373   -2.7744    0.9264 C.ar      1 <1>        -0.0908
     32 H32         7.7027   -4.4792    1.1717 H         1 <1>         0.0632
     33 H33         7.5133   -4.7030   -0.5839 H         1 <1>         0.0560
     34 H34         7.7113   -3.0668    0.0885 H         1 <1>         0.0560
     35 H35         5.4062   -5.8859   -0.3760 H         1 <1>         0.1225
     36 H36         2.9650   -5.6984   -0.1433 H         1 <1>         0.1222
     37 H37        -2.9526   -2.9145    2.1801 H         1 <1>         0.1403
     38 H38        -3.1143   -2.7767    0.4129 H         1 <1>         0.1403
     39 H39        -4.4311   -1.2437    1.5392 H         1 <1>         0.1424
     40 H40        -6.2577    0.3715    1.8323 H         1 <1>         0.1359
     41 H41        -9.1700    0.0964    1.1976 H         1 <1>         0.3660
     42 H42        -9.8219   -2.9748    1.0294 H         1 <1>         0.3592
     43 H43        -7.2816   -4.4580    1.5633 H         1 <1>         0.1571
     44 H44         1.9278   -6.1427    2.5750 H         1 <1>         0.1484
     45 H45         2.4057   -8.5452    2.3365 H         1 <1>         0.1475
     46 H46         0.4889   -8.5554   -1.4760 H         1 <1>         0.1496
     47 H47         0.0023   -6.1542   -1.2423 H         1 <1>         0.1463
     48 H48         3.4409   -1.7484    1.4589 H         1 <1>         0.1450
     49 H49         5.8801   -1.9587    1.2226 H         1 <1>         0.1239
@<TRIPOS>BOND
     1    1    2 1
     2    1   32 1
     3    1   33 1
     4    1   34 1
     5    2   31 ar
     6    2    3 ar
     7    3    4 ar
     8    3   35 1
     9    4    5 ar
    10    4   36 1
    11    5    6 1
    12    5   30 ar
    13    6   22 1
    14    6    7 2
    15    7    8 1
    16    8    9 2
    17    9   10 1
    18    9   22 1
    19   10   11 1
    20   11   12 1
    21   11   37 1
    22   11   38 1
    23   12   13 2
    24   12   14 1
    25   14   21 ar
    26   14   15 ar
    27   15   16 ar
    28   15   39 1
    29   16   17 ar
    30   16   40 1
    31   17   18 1
    32   17   19 ar
    33   18   41 1
    34   19   20 1
    35   19   21 ar
    36   20   42 1
    37   21   43 1
    38   22   23 1
    39   23   29 ar
    40   23   24 ar
    41   24   25 ar
    42   24   44 1
    43   25   26 ar
    44   25   45 1
    45   26   27 1
    46   26   28 ar
    47   28   29 ar
    48   28   46 1
    49   29   47 1
    50   30   31 ar
    51   30   48 1
    52   31   49 1
@<TRIPOS>Similarity
1.0028
@<TRIPOS>ShapeSim
0.6836
@<TRIPOS>PharmSim
0.3191
# END
# Name:		CC(=O)NCCC1=CNC2=C1C=C(C=C2)OC
# Created and modified by SHAFTS on Sun Mar 21 16:57:45 2021

# 

@<TRIPOS>MOLECULE
CC(=O)NCCC1=CNC2=C1C=C(C=C2)OC
   33    34     0
SMALL
USER_CHARGE


@<TRIPOS>ATOM
      1 C1         -3.8214   -4.7760    1.2281 C.3       1 <1>         0.0195
      2 O2         -5.2417   -4.6856    1.3571 O.3       1 <1>        -0.4233
      3 C3         -5.7705   -3.4410    1.5018 C.ar      1 <1>        -0.0143
      4 C4         -4.9330   -2.3290    1.5129 C.ar      1 <1>        -0.0667
      5 C5         -5.4519   -1.0614    1.6580 C.ar      1 <1>        -0.0769
      6 C6         -6.8242   -0.8836    1.7952 C.ar      1 <1>        -0.0685
      7 N7         -7.6237    0.2288    1.9536 N.pl3     1 <1>        -0.3749
      8 C8         -8.9351   -0.1504    2.0420 C.2       1 <1>        -0.0732
      9 C9         -9.0331   -1.4858    1.9471 C.2       1 <1>        -0.0852
     10 C10       -10.3020   -2.2972    1.9974 C.3       1 <1>        -0.0241
     11 C11       -10.5368   -2.7886    3.4272 C.3       1 <1>        -0.0274
     12 N12       -11.7704   -3.5772    3.4762 N.am      1 <1>        -0.3610
     13 C13       -12.1804   -4.1154    4.6418 C.2       1 <1>         0.0554
     14 C14       -13.4494   -4.9268    4.6921 C.3       1 <1>         0.0443
     15 O15       -11.5281   -3.9468    5.6502 O.2       1 <1>        -0.5078
     16 C16        -7.6730   -2.0051    1.7844 C.ar      1 <1>        -0.0684
     17 C17        -7.1363   -3.2851    1.6314 C.ar      1 <1>        -0.0500
     18 H18        -3.5322   -5.8213    1.1198 H         1 <1>         0.1203
     19 H19        -3.5001   -4.2172    0.3491 H         1 <1>         0.0841
     20 H20        -3.3485   -4.3583    2.1170 H         1 <1>         0.0841
     21 H21        -3.8664   -2.4614    1.4071 H         1 <1>         0.1163
     22 H22        -4.7930   -0.2057    1.6657 H         1 <1>         0.1252
     23 H23        -7.3038    1.1436    1.9961 H         1 <1>         0.3288
     24 H24        -9.7684    0.5249    2.1694 H         1 <1>         0.1924
     25 H25       -11.1421   -1.6775    1.6836 H         1 <1>         0.0806
     26 H26       -10.2125   -3.1535    1.3290 H         1 <1>         0.0806
     27 H27        -9.6968   -3.4081    3.7410 H         1 <1>         0.0979
     28 H28       -10.6263   -1.9321    4.0956 H         1 <1>         0.0979
     29 H29       -12.2922   -3.7121    2.6696 H         1 <1>         0.2932
     30 H30       -13.2186   -5.9745    4.4995 H         1 <1>         0.0877
     31 H31       -13.9035   -4.8301    5.6782 H         1 <1>         0.0877
     32 H32       -14.1437   -4.5625    3.9349 H         1 <1>         0.0806
     33 H33        -7.7854   -4.1482    1.6172 H         1 <1>         0.1351
@<TRIPOS>BOND
     1    1    2 1
     2    1   18 1
     3    1   19 1
     4    1   20 1
     5    2    3 1
     6    3   17 ar
     7    3    4 ar
     8    4    5 ar
     9    4   21 1
    10    5    6 ar
    11    5   22 1
    12    6   16 ar
    13    6    7 1
    14    7    8 1
    15    7   23 1
    16    8    9 2
    17    8   24 1
    18    9   10 1
    19    9   16 1
    20   10   11 1
    21   10   25 1
    22   10   26 1
    23   11   12 1
    24   11   27 1
    25   11   28 1
    26   12   13 am
    27   12   29 1
    28   13   14 1
    29   13   15 2
    30   14   30 1
    31   14   31 1
    32   14   32 1
    33   16   17 ar
    34   17   33 1
@<TRIPOS>Similarity
1.0013
@<TRIPOS>ShapeSim
0.5978
@<TRIPOS>PharmSim
0.4035
# END
# Name:		CC(=O)NCCC1=CNC2=C1C=C(C=C2)OC
# Created and modified by SHAFTS on Sun Mar 21 16:57:45 2021

# 

@<TRIPOS>MOLECULE
CC(=O)NCCC1=CNC2=C1C=C(C=C2)OC
   33    34     0
SMALL
USER_CHARGE


@<TRIPOS>ATOM
      1 C1         -3.8214   -4.7760    1.2281 C.3       1 <1>         0.0195
      2 O2         -5.2417   -4.6856    1.3571 O.3       1 <1>        -0.4233
      3 C3         -5.7705   -3.4410    1.5018 C.ar      1 <1>        -0.0143
      4 C4         -4.9330   -2.3290    1.5129 C.ar      1 <1>        -0.0667
      5 C5         -5.4519   -1.0614    1.6580 C.ar      1 <1>        -0.0769
      6 C6         -6.8242   -0.8836    1.7952 C.ar      1 <1>        -0.0685
      7 N7         -7.6237    0.2288    1.9536 N.pl3     1 <1>        -0.3749
      8 C8         -8.9351   -0.1504    2.0420 C.2       1 <1>        -0.0732
      9 C9         -9.0331   -1.4858    1.9471 C.2       1 <1>        -0.0852
     10 C10       -10.3020   -2.2972    1.9974 C.3       1 <1>        -0.0241
     11 C11       -10.5368   -2.7886    3.4272 C.3       1 <1>        -0.0274
     12 N12       -11.7704   -3.5772    3.4762 N.am      1 <1>        -0.3610
     13 C13       -12.1804   -4.1154    4.6418 C.2       1 <1>         0.0554
     14 C14       -13.4494   -4.9268    4.6921 C.3       1 <1>         0.0443
     15 O15       -11.5281   -3.9468    5.6502 O.2       1 <1>        -0.5078
     16 C16        -7.6730   -2.0051    1.7844 C.ar      1 <1>        -0.0684
     17 C17        -7.1363   -3.2851    1.6314 C.ar      1 <1>        -0.0500
     18 H18        -3.5322   -5.8213    1.1198 H         1 <1>         0.1203
     19 H19        -3.5001   -4.2172    0.3491 H         1 <1>         0.0841
     20 H20        -3.3485   -4.3583    2.1170 H         1 <1>         0.0841
     21 H21        -3.8664   -2.4614    1.4071 H         1 <1>         0.1163
     22 H22        -4.7930   -0.2057    1.6657 H         1 <1>         0.1252
     23 H23        -7.3038    1.1436    1.9961 H         1 <1>         0.3288
     24 H24        -9.7684    0.5249    2.1694 H         1 <1>         0.1924
     25 H25       -11.1421   -1.6775    1.6836 H         1 <1>         0.0806
     26 H26       -10.2125   -3.1535    1.3290 H         1 <1>         0.0806
     27 H27        -9.6968   -3.4081    3.7410 H         1 <1>         0.0979
     28 H28       -10.6263   -1.9321    4.0956 H         1 <1>         0.0979
     29 H29       -12.2922   -3.7121    2.6696 H         1 <1>         0.2932
     30 H30       -13.2186   -5.9745    4.4995 H         1 <1>         0.0877
     31 H31       -13.9035   -4.8301    5.6782 H         1 <1>         0.0877
     32 H32       -14.1437   -4.5625    3.9349 H         1 <1>         0.0806
     33 H33        -7.7854   -4.1482    1.6172 H         1 <1>         0.1351
@<TRIPOS>BOND
     1    1    2 1
     2    1   18 1
     3    1   19 1
     4    1   20 1
     5    2    3 1
     6    3   17 ar
     7    3    4 ar
     8    4    5 ar
     9    4   21 1
    10    5    6 ar
    11    5   22 1
    12    6   16 ar
    13    6    7 1
    14    7    8 1
    15    7   23 1
    16    8    9 2
    17    8   24 1
    18    9   10 1
    19    9   16 1
    20   10   11 1
    21   10   25 1
    22   10   26 1
    23   11   12 1
    24   11   27 1
    25   11   28 1
    26   12   13 am
    27   12   29 1
    28   13   14 1
    29   13   15 2
    30   14   30 1
    31   14   31 1
    32   14   32 1
    33   16   17 ar
    34   17   33 1
@<TRIPOS>Similarity
1.0013
@<TRIPOS>ShapeSim
0.5978
@<TRIPOS>PharmSim
0.4035
# END
# Name:		COC(=O)NC1=CC=C(C=C1)C2=NC3=C(C=NN3C4CCN(CC4)CC5=CN=CC=C5)C(=N2)N6CCOCC6
# Created and modified by SHAFTS on Sun Mar 21 16:57:45 2021

# 

@<TRIPOS>MOLECULE
COC(=O)NC1=CC=C(C=C1)C2=NC3=C(C=NN3C4CCN(CC4)CC5=CN=CC=C5)C(=N2)N6CCOCC6
   72    77     0
SMALL
USER_CHARGE


@<TRIPOS>ATOM
      1 C1          3.4627   -3.8147    2.1265 C.3       1 <1>         0.0448
      2 O2          2.4173   -4.5330    1.4197 O.3       1 <1>        -0.3325
      3 C3          1.1710   -4.0291    1.4954 C.2       1 <1>         0.2064
      4 O4          0.9627   -3.0169    2.1346 O.2       1 <1>        -0.4534
      5 N5          0.1545   -4.6474    0.8623 N.am      1 <1>        -0.2677
      6 C6         -1.1530   -4.1809    1.0188 C.ar      1 <1>        -0.0314
      7 C7         -1.3929   -2.8173    1.1443 C.ar      1 <1>        -0.0448
      8 C8         -2.6817   -2.3545    1.2985 C.ar      1 <1>        -0.0461
      9 C9         -3.7462   -3.2557    1.3285 C.ar      1 <1>         0.0202
     10 C10        -5.1328   -2.7609    1.4937 C.ar      1 <1>         0.0581
     11 N11        -6.1282   -3.6424    1.5243 N.ar      1 <1>        -0.3569
     12 C12        -7.3870   -3.2502    1.6706 C.ar      1 <1>        -0.1161
     13 N13        -8.4149   -4.1723    1.7018 N.3       1 <1>         0.3955
     14 C14        -9.2030   -4.0410    2.9360 C.3       1 <1>        -0.1211
     15 C15       -10.3641   -5.0384    2.9022 C.3       1 <1>        -0.0085
     16 O16        -9.8456   -6.3600    2.7287 O.3       1 <1>        -0.4625
     17 C17        -9.0733   -6.5236    1.5362 C.3       1 <1>        -0.0089
     18 C18        -7.8992   -5.5412    1.5562 C.3       1 <1>        -0.1202
     19 C19        -7.6518   -1.8713    1.7938 C.ar      1 <1>         0.0409
     20 C20        -8.8209   -1.0984    1.9589 C.2       1 <1>         0.0261
     21 N21        -8.4810    0.1579    2.0166 N.2       1 <1>        -0.3169
     22 N22        -7.0909    0.2773    1.8944 N.pl3     1 <1>        -0.2931
     23 C23        -6.3318    1.5301    1.9125 C.3       1 <1>         0.0092
     24 C24        -6.8030    2.4309    0.7672 C.3       1 <1>        -0.0350
     25 C25        -6.0628    3.7683    0.8397 C.3       1 <1>        -0.0877
     26 N26        -6.3459    4.4192    2.1245 N.4       1 <1>         0.4055
     27 H27        -7.3428    4.5350    2.2292 H         1 <1>         0.1648
     28 C28        -5.6953    5.7358    2.1585 C.3       1 <1>        -0.0775
     29 C29        -5.8815    6.3531    3.5206 C.ar      1 <1>        -0.0983
     30 C30        -6.9862    7.1472    3.7863 C.ar      1 <1>        -0.0917
     31 C31        -7.1165    7.6940    5.0540 C.ar      1 <1>        -0.0598
     32 C32        -6.1476    7.4310    6.0035 C.ar      1 <1>        -0.0280
     33 N33        -5.1094    6.6706    5.7154 N.ar      1 <1>        -0.3914
     34 C34        -4.9557    6.1300    4.5225 C.ar      1 <1>        -0.0425
     35 C35        -5.8324    3.5944    3.2246 C.3       1 <1>        -0.0879
     36 C36        -6.5637    2.2503    3.2439 C.3       1 <1>        -0.0349
     37 C37        -6.5657   -0.9737    1.7558 C.ar      1 <1>         0.0481
     38 N38        -5.3353   -1.4580    1.6107 N.ar      1 <1>        -0.3258
     39 C39        -3.5028   -4.6235    1.2023 C.ar      1 <1>        -0.0495
     40 C40        -2.2125   -5.0806    1.0431 C.ar      1 <1>        -0.0506
     41 H41         3.2248   -3.7802    3.1896 H         1 <1>         0.1044
     42 H42         4.4149   -4.3257    1.9836 H         1 <1>         0.1334
     43 H43         3.5332   -2.7992    1.7367 H         1 <1>         0.1044
     44 H44         0.3308   -5.4163    0.2978 H         1 <1>         0.3426
     45 H45        -0.5685   -2.1200    1.1215 H         1 <1>         0.1490
     46 H46        -2.8675   -1.2951    1.3963 H         1 <1>         0.1520
     47 H47        -8.5684   -4.2503    3.7971 H         1 <1>         0.0508
     48 H48        -9.5962   -3.0272    3.0106 H         1 <1>         0.0723
     49 H49       -10.9175   -4.9847    3.8396 H         1 <1>         0.1311
     50 H50       -11.0280   -4.7961    2.0724 H         1 <1>         0.1022
     51 H51        -8.6934   -7.5440    1.4858 H         1 <1>         0.1312
     52 H52        -9.6998   -6.3245    0.6667 H         1 <1>         0.0950
     53 H53        -7.3409   -5.6225    0.6236 H         1 <1>         0.0745
     54 H54        -7.2438   -5.7745    2.3952 H         1 <1>         0.0530
     55 H55        -9.8277   -1.4834    2.0256 H         1 <1>         0.2458
     56 H56        -5.2698    1.3145    1.7948 H         1 <1>         0.1515
     57 H57        -6.5901    1.9484   -0.1867 H         1 <1>         0.0902
     58 H58        -7.8755    2.6032    0.8573 H         1 <1>         0.0759
     59 H59        -4.9905    3.5949    0.7493 H         1 <1>         0.0988
     60 H60        -6.3959    4.4119    0.0256 H         1 <1>         0.0988
     61 H61        -4.6308    5.6204    1.9544 H         1 <1>         0.1110
     62 H62        -6.1423    6.3817    1.4028 H         1 <1>         0.1110
     63 H63        -7.7277    7.3358    3.0240 H         1 <1>         0.1480
     64 H64        -7.9643    8.3177    5.2960 H         1 <1>         0.1388
     65 H65        -6.2416    7.8534    6.9931 H         1 <1>         0.2189
     66 H66        -4.0922    5.5127    4.3236 H         1 <1>         0.2060
     67 H67        -4.7650    3.4247    3.0833 H         1 <1>         0.0969
     68 H68        -5.9952    4.1096    4.1712 H         1 <1>         0.0969
     69 H69        -7.6312    2.4188    3.3854 H         1 <1>         0.0777
     70 H70        -6.1797    1.6387    4.0602 H         1 <1>         0.0920
     71 H71        -4.3252   -5.3231    1.2253 H         1 <1>         0.1511
     72 H72        -2.0237   -6.1395    0.9450 H         1 <1>         0.1363
@<TRIPOS>BOND
     1    1    2 1
     2    1   41 1
     3    1   42 1
     4    1   43 1
     5    2    3 1
     6    3    4 2
     7    3    5 am
     8    5    6 1
     9    5   44 1
    10    6   40 ar
    11    6    7 ar
    12    7    8 ar
    13    7   45 1
    14    8    9 ar
    15    8   46 1
    16    9   10 1
    17    9   39 ar
    18   10   38 ar
    19   10   11 ar
    20   11   12 ar
    21   12   13 1
    22   12   19 ar
    23   13   18 1
    24   13   14 1
    25   14   15 1
    26   14   47 1
    27   14   48 1
    28   15   16 1
    29   15   49 1
    30   15   50 1
    31   16   17 1
    32   17   18 1
    33   17   51 1
    34   17   52 1
    35   18   53 1
    36   18   54 1
    37   19   37 ar
    38   19   20 1
    39   20   21 2
    40   20   55 1
    41   21   22 1
    42   22   23 1
    43   22   37 1
    44   23   36 1
    45   23   24 1
    46   23   56 1
    47   24   25 1
    48   24   57 1
    49   24   58 1
    50   25   26 1
    51   25   59 1
    52   25   60 1
    53   26   27 1
    54   26   28 1
    55   26   35 1
    56   28   29 1
    57   28   61 1
    58   28   62 1
    59   29   34 ar
    60   29   30 ar
    61   30   31 ar
    62   30   63 1
    63   31   32 ar
    64   31   64 1
    65   32   33 ar
    66   32   65 1
    67   33   34 ar
    68   34   66 1
    69   35   36 1
    70   35   67 1
    71   35   68 1
    72   36   69 1
    73   36   70 1
    74   37   38 ar
    75   39   40 ar
    76   39   71 1
    77   40   72 1
@<TRIPOS>Similarity
1.0011
@<TRIPOS>ShapeSim
0.5875
@<TRIPOS>PharmSim
0.4136
# END
# Name:		CN1C(=C(C2=CC=CC=C2S1(=O)=O)O)C(=O)NC3=CC=CC=N3
# Created and modified by SHAFTS on Sun Mar 21 16:57:45 2021

# 

@<TRIPOS>MOLECULE
CN1C(=C(C2=CC=CC=C2S1(=O)=O)O)C(=O)NC3=CC=CC=N3
   35    37     0
SMALL
USER_CHARGE


@<TRIPOS>ATOM
      1 C1         -2.7657   -2.9937   -1.3231 C.3       1 <1>         0.0404
      2 N2         -2.0954   -3.6956   -0.2258 N.am      1 <1>        -0.1299
      3 C3         -2.8271   -4.4382    0.7208 C.2       1 <1>         0.1180
      4 C4         -4.1487   -4.0304    1.0356 C.2       1 <1>         0.1290
      5 O5         -4.9910   -4.8626    1.3208 O.2       1 <1>        -0.4611
      6 N6         -4.4723   -2.7222    1.0191 N.am      1 <1>        -0.2706
      7 C7         -5.7510   -2.3164    1.3928 C.ar      1 <1>         0.0061
      8 C8         -6.7993   -3.2293    1.3641 C.ar      1 <1>        -0.0314
      9 C9         -8.0648   -2.8128    1.7380 C.ar      1 <1>        -0.0923
     10 C10        -8.2389   -1.4924    2.1294 C.ar      1 <1>        -0.0841
     11 C11        -7.1525   -0.6397    2.1340 C.ar      1 <1>        -0.0500
     12 N12        -5.9563   -1.0663    1.7775 N.ar      1 <1>        -0.3847
     13 C13        -2.3166   -5.5247    1.3397 C.2       1 <1>         0.0034
     14 O14        -3.1001   -6.1674    2.2392 O.3       1 <1>        -0.5218
     15 C15        -0.9686   -6.0557    1.1015 C.ar      1 <1>         0.0677
     16 C16        -0.6355   -7.3494    1.5153 C.ar      1 <1>        -0.0620
     17 C17         0.6332   -7.8384    1.2852 C.ar      1 <1>        -0.0911
     18 C18         1.5817   -7.0586    0.6474 C.ar      1 <1>        -0.0941
     19 C19         1.2629   -5.7745    0.2333 C.ar      1 <1>        -0.0057
     20 C20         0.0028   -5.2787    0.4582 C.ar      1 <1>         0.3161
     21 S21        -0.4378   -3.6504   -0.0559 S.o2      1 <1>        -0.0267
     22 O22         0.1053   -3.4688   -1.3564 O.2       1 <1>        -0.0740
     23 O23        -0.1642   -2.7856    1.0380 O.2       1 <1>        -0.0740
     24 H24        -2.7463   -3.6158   -2.2180 H         1 <1>         0.0884
     25 H25        -3.7997   -2.7888   -1.0455 H         1 <1>         0.1028
     26 H26        -2.2500   -2.0543   -1.5225 H         1 <1>         0.0884
     27 H27        -3.8145   -2.0634    0.7469 H         1 <1>         0.3336
     28 H28        -6.6283   -4.2495    1.0539 H         1 <1>         0.1639
     29 H29        -8.8984   -3.4995    1.7254 H         1 <1>         0.1298
     30 H30        -9.2139   -1.1355    2.4268 H         1 <1>         0.1068
     31 H31        -7.2832    0.3885    2.4373 H         1 <1>         0.1936
     32 H32        -1.3701   -7.9641    2.0142 H         1 <1>         0.1400
     33 H33         0.8886   -8.8377    1.6056 H         1 <1>         0.1301
     34 H34         2.5726   -7.4510    0.4721 H         1 <1>         0.1187
     35 H35         2.0034   -5.1664   -0.2646 H         1 <1>         0.1366
@<TRIPOS>BOND
     1    1    2 1
     2    1   24 1
     3    1   25 1
     4    1   26 1
     5    2   21 am
     6    2    3 1
     7    3    4 1
     8    3   13 2
     9    4    5 2
    10    4    6 am
    11    6    7 1
    12    6   27 1
    13    7   12 ar
    14    7    8 ar
    15    8    9 ar
    16    8   28 1
    17    9   10 ar
    18    9   29 1
    19   10   11 ar
    20   10   30 1
    21   11   12 ar
    22   11   31 1
    23   13   14 1
    24   13   15 1
    25   15   20 ar
    26   15   16 ar
    27   16   17 ar
    28   16   32 1
    29   17   18 ar
    30   17   33 1
    31   18   19 ar
    32   18   34 1
    33   19   20 ar
    34   19   35 1
    35   20   21 1
    36   21   22 2
    37   21   23 2
@<TRIPOS>Similarity
1.0011
@<TRIPOS>ShapeSim
0.6290
@<TRIPOS>PharmSim
0.3721
# END
# Name:		CC1=CC(=C(C=C1Br)NC(=O)NC2=NC=C(N=C2)C)OCC3CNCCO3
# Created and modified by SHAFTS on Sun Mar 21 16:57:45 2021

# 

@<TRIPOS>MOLECULE
CC1=CC(=C(C=C1Br)NC(=O)NC2=NC=C(N=C2)C)OCC3CNCCO3
   50    52     0
SMALL
USER_CHARGE


@<TRIPOS>ATOM
      1 C1          3.2888   -2.7689    0.8522 C.3       1 <1>        -0.0074
      2 C2          1.8595   -3.2463    0.8703 C.ar      1 <1>        -0.0207
      3 C3          0.8321   -2.3394    1.0484 C.ar      1 <1>         0.0084
      4 N4         -0.4232   -2.7542    1.0643 N.ar      1 <1>        -0.3386
      5 C5         -0.6962   -4.0426    0.9092 C.ar      1 <1>         0.0544
      6 N6         -2.0183   -4.4836    0.9250 N.am      1 <1>        -0.2467
      7 C7         -3.0141   -3.6180    1.1994 C.2       1 <1>         0.1643
      8 O8         -2.7696   -2.4356    1.3427 O.2       1 <1>        -0.4336
      9 N9         -4.2811   -4.0630    1.3150 N.am      1 <1>        -0.2726
     10 C10        -5.3317   -3.1506    1.4825 C.ar      1 <1>         0.0138
     11 C11        -5.1970   -1.8454    1.0339 C.ar      1 <1>        -0.0234
     12 C12        -6.2356   -0.9469    1.2000 C.ar      1 <1>        -0.0241
     13 Br13       -6.0508    0.8324    0.5871 Br        1 <1>        -0.0999
     14 C14        -7.4090   -1.3473    1.8128 C.ar      1 <1>        -0.0922
     15 C15        -8.5374   -0.3644    1.9907 C.3       1 <1>        -0.0352
     16 C16        -7.5496   -2.6475    2.2625 C.ar      1 <1>        -0.0522
     17 C17        -6.5161   -3.5542    2.0950 C.ar      1 <1>         0.0346
     18 O18        -6.6534   -4.8331    2.5369 O.3       1 <1>        -0.3936
     19 C19        -7.8911   -5.1732    3.1650 C.3       1 <1>         0.0559
     20 C20        -7.8596   -6.6421    3.5921 C.3       1 <1>         0.0217
     21 H21        -7.6238   -7.2667    2.7304 H         1 <1>         0.1314
     22 C22        -9.2266   -7.0406    4.1535 C.3       1 <1>        -0.0695
     23 N23        -9.1762   -8.4344    4.6162 N.4       1 <1>         0.4355
     24 H24       -10.0767   -8.6987    4.9866 H         1 <1>         0.1621
     25 H25        -8.9404   -9.0374    3.8424 H         1 <1>         0.1545
     26 C26        -8.1571   -8.5639    5.6668 C.3       1 <1>        -0.0794
     27 C27        -6.7920   -8.1626    5.1025 C.3       1 <1>         0.0006
     28 O28        -6.8627   -6.8248    4.6014 O.3       1 <1>        -0.4518
     29 C29         0.3415   -4.9537    0.7299 C.ar      1 <1>         0.0323
     30 N30         1.5915   -4.5315    0.7101 N.ar      1 <1>        -0.3743
     31 H31         3.5742   -2.5148   -0.1686 H         1 <1>         0.0740
     32 H32         3.3855   -1.8877    1.4866 H         1 <1>         0.0740
     33 H33         3.9405   -3.5588    1.2257 H         1 <1>         0.0740
     34 H34         1.0549   -1.2902    1.1750 H         1 <1>         0.2246
     35 H35        -2.2216   -5.4136    0.7385 H         1 <1>         0.3473
     36 H36        -4.4657   -5.0146    1.2822 H         1 <1>         0.3298
     37 H37        -4.2816   -1.5304    0.5553 H         1 <1>         0.1794
     38 H38        -9.1927   -0.4021    1.1205 H         1 <1>         0.0625
     39 H39        -9.1055   -0.6213    2.8848 H         1 <1>         0.0554
     40 H40        -8.1301    0.6412    2.0955 H         1 <1>         0.0625
     41 H41        -8.4671   -2.9571    2.7407 H         1 <1>         0.1271
     42 H42        -8.0386   -4.5429    4.0420 H         1 <1>         0.1300
     43 H43        -8.7100   -5.0164    2.4629 H         1 <1>         0.1300
     44 H44        -9.4803   -6.3889    4.9897 H         1 <1>         0.1039
     45 H45        -9.9823   -6.9433    3.3741 H         1 <1>         0.1039
     46 H46        -8.4111   -7.9117    6.5023 H         1 <1>         0.0923
     47 H47        -8.1187   -9.5976    6.0107 H         1 <1>         0.0994
     48 H48        -6.0418   -8.2166    5.8914 H         1 <1>         0.1476
     49 H49        -6.5194   -8.8397    4.2931 H         1 <1>         0.1041
     50 H50         0.1232   -6.0038    0.6032 H         1 <1>         0.2136
@<TRIPOS>BOND
     1    1    2 1
     2    1   31 1
     3    1   32 1
     4    1   33 1
     5    2   30 ar
     6    2    3 ar
     7    3    4 ar
     8    3   34 1
     9    4    5 ar
    10    5    6 1
    11    5   29 ar
    12    6    7 am
    13    6   35 1
    14    7    8 2
    15    7    9 am
    16    9   10 1
    17    9   36 1
    18   10   17 ar
    19   10   11 ar
    20   11   12 ar
    21   11   37 1
    22   12   13 1
    23   12   14 ar
    24   14   15 1
    25   14   16 ar
    26   15   38 1
    27   15   39 1
    28   15   40 1
    29   16   17 ar
    30   16   41 1
    31   17   18 1
    32   18   19 1
    33   19   20 1
    34   19   42 1
    35   19   43 1
    36   20   21 1
    37   20   28 1
    38   20   22 1
    39   22   23 1
    40   22   44 1
    41   22   45 1
    42   23   24 1
    43   23   25 1
    44   23   26 1
    45   26   27 1
    46   26   46 1
    47   26   47 1
    48   27   28 1
    49   27   48 1
    50   27   49 1
    51   29   30 ar
    52   29   50 1
@<TRIPOS>Similarity
1.0002
@<TRIPOS>ShapeSim
0.7236
@<TRIPOS>PharmSim
0.2766
# END
