@<TRIPOS>MOLECULE
ZINC000057332148
  40   42    0    0    0
SMALL
USER_CHARGES
NO_NAME
@<TRIPOS>ATOM
    1 C1       -0.0178     1.4648     0.0101 C.3    1 <0>      -0.0600
    2 N2        0.0021    -0.0041     0.0020 N.4    1 <0>      -0.3900
    3 H3        0.4744    -0.3295    -0.8281 H      1 <0>       0.4300
    4 C4       -1.3761    -0.5125     0.0124 C.3    1 <0>       0.0500
    5 C5       -2.0674    -0.1162    -1.2666 C.ar   1 <0>      -0.1800
    6 C6       -2.7503     1.0837    -1.3395 C.ar   1 <0>      -0.0600
    7 C7       -3.3847     1.4482    -2.5119 C.ar   1 <0>      -0.1500
    8 C8       -3.3358     0.6114    -3.6139 C.ar   1 <0>       0.1400
    9 F9       -3.9552     0.9670    -4.7607 F      1 <0>      -0.1200
   10 C10      -2.6512    -0.5898    -3.5399 C.ar   1 <0>      -0.1500
   11 C11      -2.0135    -0.9500    -2.3679 C.ar   1 <0>      -0.0600
   12 C12       0.7126    -0.4907     1.1921 C.3    1 <0>       0.0300
   13 C13       2.1584    -0.0720     1.1202 C.2    1 <0>      -0.0400
   14 C14       2.5888     1.0590     1.7376 C.2    1 <0>      -0.1800
   15 C15       3.9468     1.4295     1.6555 C.2    1 <0>       0.5000
   16 O16       4.3194     2.4457     2.2140 O.2    1 <0>      -0.4300
   17 O17       4.8396     0.6908     0.9781 O.3    1 <0>      -0.2600
   18 C18       4.4777    -0.4441     0.3422 C.ar   1 <0>       0.1800
   19 C19       5.4125    -1.1959    -0.3527 C.ar   1 <0>      -0.1600
   20 C20       5.0196    -2.3575    -0.9977 C.ar   1 <0>       0.1900
   21 O21       5.9359    -3.0927    -1.6779 O.3    1 <0>      -0.4900
   22 C22       3.6918    -2.7774    -0.9536 C.ar   1 <0>      -0.1500
   23 C23       2.7585    -2.0489    -0.2743 C.ar   1 <0>      -0.0600
   24 C24       3.1389    -0.8764     0.3880 C.ar   1 <0>      -0.1800
   25 H25       1.0047     1.8421     0.0024 H      1 <0>       0.1200
   26 H26      -0.5450     1.8259    -0.8730 H      1 <0>       0.1300
   27 H27      -0.5280     1.8163     0.9069 H      1 <0>       0.1300
   28 H28      -1.3618    -1.5992     0.0960 H      1 <0>       0.1400
   29 H29      -1.9129    -0.0898     0.8617 H      1 <0>       0.1400
   30 H30      -2.7883     1.7362    -0.4797 H      1 <0>       0.1400
   31 H31      -3.9186     2.3853    -2.5683 H      1 <0>       0.1500
   32 H32      -2.6127    -1.2434    -4.3988 H      1 <0>       0.1500
   33 H33      -1.4792    -1.8868    -2.3101 H      1 <0>       0.1400
   34 H34       0.2557    -0.0671     2.0865 H      1 <0>       0.1500
   35 H35       0.6508    -1.5782     1.2328 H      1 <0>       0.1500
   36 H36       1.8925     1.6729     2.2895 H      1 <0>       0.1800
   37 H37       6.4436    -0.8769    -0.3915 H      1 <0>       0.1600
   38 H38       6.3722    -3.7699    -1.1430 H      1 <0>       0.4100
   39 H39       3.3991    -3.6850    -1.4605 H      1 <0>       0.1500
   40 H40       1.7307    -2.3791    -0.2438 H      1 <0>       0.1400
@<TRIPOS>BOND
   1    1    2 1
   2    1   25 1
   3    1   26 1
   4    1   27 1
   5    2    3 1
   6    2    4 1
   7    2   12 1
   8    4    5 1
   9    4   28 1
  10    4   29 1
  11    5   11 ar
  12    5    6 ar
  13    6    7 ar
  14    6   30 1
  15    7    8 ar
  16    7   31 1
  17    8    9 1
  18    8   10 ar
  19   10   11 ar
  20   10   32 1
  21   11   33 1
  22   12   13 1
  23   12   34 1
  24   12   35 1
  25   13   24 1
  26   13   14 2
  27   14   15 1
  28   14   36 1
  29   15   16 2
  30   15   17 1
  31   17   18 1
  32   18   24 ar
  33   18   19 ar
  34   19   20 ar
  35   19   37 1
  36   20   21 1
  37   20   22 ar
  38   21   38 1
  39   22   23 ar
  40   22   39 1
  41   23   24 ar
  42   23   40 1
