# Name:		O=C1C=C(CN(CC2=CC=C(F)C=C2)C)C(C=CC(O)=C3)=C3O1
# Created and modified by SHAFTS on Thu Mar 11 05:28:35 2021

# 

@<TRIPOS>MOLECULE
O=C1C=C(CN(CC2=CC=C(F)C=C2)C)C(C=CC(O)=C3)=C3O1
   40    42     0
SMALL
USER_CHARGE


@<TRIPOS>ATOM
      1 C1         -0.0178    1.4648    0.0101 C.3       1 <1>        -0.0865
      2 N2          0.0021   -0.0041    0.0020 N.4       1 <1>         0.4120
      3 H3          0.4744   -0.3295   -0.8281 H         1 <1>         0.1711
      4 C4         -1.3761   -0.5125    0.0124 C.3       1 <1>        -0.0800
      5 C5         -2.0674   -0.1162   -1.2666 C.ar      1 <1>        -0.1245
      6 C6         -2.7503    1.0837   -1.3395 C.ar      1 <1>        -0.0937
      7 C7         -3.3847    1.4482   -2.5119 C.ar      1 <1>        -0.0391
      8 C8         -3.3358    0.6114   -3.6139 C.ar      1 <1>         0.0769
      9 F9         -3.9552    0.9670   -4.7607 F         1 <1>        -0.2518
     10 C10        -2.6512   -0.5898   -3.5399 C.ar      1 <1>        -0.0391
     11 C11        -2.0135   -0.9500   -2.3679 C.ar      1 <1>        -0.0937
     12 C12         0.7126   -0.4907    1.1921 C.3       1 <1>        -0.0654
     13 C13         2.1584   -0.0720    1.1202 C.2       1 <1>        -0.0885
     14 C14         2.5888    1.0590    1.7376 C.2       1 <1>         0.0355
     15 C15         3.9468    1.4295    1.6555 C.2       1 <1>         0.2130
     16 O16         4.3194    2.4457    2.2140 O.2       1 <1>        -0.4061
     17 O17         4.8396    0.6908    0.9781 O.3       1 <1>        -0.2745
     18 C18         4.4777   -0.4441    0.3422 C.ar      1 <1>         0.0520
     19 C19         5.4125   -1.1959   -0.3527 C.ar      1 <1>         0.0021
     20 C20         5.0196   -2.3575   -0.9977 C.ar      1 <1>        -0.0087
     21 O21         5.9359   -3.0927   -1.6779 O.3       1 <1>        -0.4212
     22 C22         3.6918   -2.7774   -0.9536 C.ar      1 <1>        -0.0495
     23 C23         2.7585   -2.0489   -0.2743 C.ar      1 <1>        -0.0806
     24 C24         3.1389   -0.8764    0.3880 C.ar      1 <1>        -0.0452
     25 H25         1.0047    1.8421    0.0024 H         1 <1>         0.0753
     26 H26        -0.5450    1.8259   -0.8730 H         1 <1>         0.0824
     27 H27        -0.5280    1.8163    0.9069 H         1 <1>         0.0824
     28 H28        -1.3618   -1.5992    0.0960 H         1 <1>         0.1116
     29 H29        -1.9129   -0.0898    0.8617 H         1 <1>         0.1116
     30 H30        -2.7883    1.7362   -0.4797 H         1 <1>         0.1394
     31 H31        -3.9186    2.3853   -2.5683 H         1 <1>         0.1427
     32 H32        -2.6127   -1.2434   -4.3988 H         1 <1>         0.1427
     33 H33        -1.4792   -1.8868   -2.3101 H         1 <1>         0.1394
     34 H34         0.2557   -0.0671    2.0865 H         1 <1>         0.1200
     35 H35         0.6508   -1.5782    1.2328 H         1 <1>         0.1200
     36 H36         1.8925    1.6729    2.2895 H         1 <1>         0.1778
     37 H37         6.4436   -0.8769   -0.3915 H         1 <1>         0.1606
     38 H38         6.3722   -3.7699   -1.1430 H         1 <1>         0.3759
     39 H39         3.3991   -3.6850   -1.4605 H         1 <1>         0.1433
     40 H40         1.7307   -2.3791   -0.2438 H         1 <1>         0.1405
@<TRIPOS>BOND
     1    1    2 1
     2    1   25 1
     3    1   26 1
     4    1   27 1
     5    2    3 1
     6    2    4 1
     7    2   12 1
     8    4    5 1
     9    4   28 1
    10    4   29 1
    11    5   11 ar
    12    5    6 ar
    13    6    7 ar
    14    6   30 1
    15    7    8 ar
    16    7   31 1
    17    8    9 1
    18    8   10 ar
    19   10   11 ar
    20   10   32 1
    21   11   33 1
    22   12   13 1
    23   12   34 1
    24   12   35 1
    25   13   24 1
    26   13   14 2
    27   14   15 1
    28   14   36 1
    29   15   16 2
    30   15   17 1
    31   17   18 1
    32   18   24 ar
    33   18   19 ar
    34   19   20 ar
    35   19   37 1
    36   20   21 1
    37   20   22 ar
    38   21   38 1
    39   22   23 ar
    40   22   39 1
    41   23   24 ar
    42   23   40 1
@<TRIPOS>Similarity
2.0000
@<TRIPOS>ShapeSim
1.0000
@<TRIPOS>PharmSim
1.0000
# END
# Name:		CCOC(=O)C1=CC=CC=C1NCC2=CC(=O)OC3=CC(=C(C=C23)O)O
# Created and modified by SHAFTS on Thu Mar 11 05:28:35 2021

# 

@<TRIPOS>MOLECULE
CCOC(=O)C1=CC=CC=C1NCC2=CC(=O)OC3=CC(=C(C=C23)O)O
   43    45     0
SMALL
USER_CHARGE


@<TRIPOS>ATOM
      1 C1         -1.9477    1.8440   -5.8826 C.3       1 <1>        -0.0325
      2 C2         -1.0959    1.6587   -4.6251 C.3       1 <1>         0.0262
      3 O3         -1.8852    1.0022   -3.5983 O.3       1 <1>        -0.3543
      4 C4         -1.2780    0.7633   -2.4192 C.2       1 <1>         0.1733
      5 O5         -0.1206    1.0947   -2.2535 O.2       1 <1>        -0.4619
      6 C6         -2.0171    0.1006   -1.3310 C.ar      1 <1>         0.0638
      7 C7         -3.3806   -0.1722   -1.4714 C.ar      1 <1>        -0.0635
      8 C8         -4.0659   -0.7928   -0.4501 C.ar      1 <1>        -0.0961
      9 C9         -3.4107   -1.1489    0.7181 C.ar      1 <1>        -0.0962
     10 C10        -2.0650   -0.8862    0.8726 C.ar      1 <1>        -0.0645
     11 C11        -1.3550   -0.2664   -0.1481 C.ar      1 <1>        -0.0457
     12 N12        -0.0008   -0.0014    0.0047 N.pl3     1 <1>        -0.3920
     13 C13         0.7101   -0.4818    1.1922 C.3       1 <1>        -0.0054
     14 C14         2.1561   -0.0644    1.1151 C.2       1 <1>        -0.0431
     15 C15         2.5885    1.0693    1.7266 C.2       1 <1>         0.0420
     16 C16         3.9464    1.4383    1.6396 C.2       1 <1>         0.2048
     17 O17         4.3209    2.4571    2.1923 O.2       1 <1>        -0.4179
     18 O18         4.8369    0.6959    0.9640 O.3       1 <1>        -0.2798
     19 C19         4.4730   -0.4424    0.3336 C.ar      1 <1>         0.0543
     20 C20         5.4086   -1.1964   -0.3592 C.ar      1 <1>         0.0027
     21 C21         5.0218   -2.3601   -1.0003 C.ar      1 <1>         0.0193
     22 O22         5.9422   -3.0944   -1.6771 O.3       1 <1>        -0.4172
     23 C23         3.6912   -2.7861   -0.9563 C.ar      1 <1>         0.0125
     24 O24         3.3246   -3.9322   -1.5905 O.3       1 <1>        -0.4258
     25 C25         2.7496   -2.0482   -0.2716 C.ar      1 <1>        -0.0366
     26 C26         3.1341   -0.8726    0.3843 C.ar      1 <1>        -0.0187
     27 H27        -1.3553    2.3369   -6.6533 H         1 <1>         0.0585
     28 H28        -2.2774    0.8702   -6.2448 H         1 <1>         0.0514
     29 H29        -2.8174    2.4568   -5.6453 H         1 <1>         0.0514
     30 H30        -0.2263    1.0459   -4.8624 H         1 <1>         0.1011
     31 H31        -0.7664    2.6325   -4.2628 H         1 <1>         0.1011
     32 H32        -3.8964    0.1034   -2.3794 H         1 <1>         0.1517
     33 H33        -5.1197   -1.0025   -0.5602 H         1 <1>         0.1095
     34 H34        -3.9571   -1.6350    1.5128 H         1 <1>         0.1366
     35 H35        -1.5620   -1.1667    1.7862 H         1 <1>         0.1146
     36 H36         0.4746    0.5019   -0.6747 H         1 <1>         0.3016
     37 H37         0.2555   -0.0540    2.0857 H         1 <1>         0.1260
     38 H38         0.6479   -1.5691    1.2379 H         1 <1>         0.1260
     39 H39         1.8939    1.6862    2.2774 H         1 <1>         0.1658
     40 H40         6.4389   -0.8750   -0.3986 H         1 <1>         0.1607
     41 H41         6.3804   -3.7683   -1.1395 H         1 <1>         0.3695
     42 H42         3.3905   -4.7246   -1.0401 H         1 <1>         0.3592
     43 H43         1.7215   -2.3772   -0.2380 H         1 <1>         0.1574
@<TRIPOS>BOND
     1    1    2 1
     2    1   27 1
     3    1   28 1
     4    1   29 1
     5    2    3 1
     6    2   30 1
     7    2   31 1
     8    3    4 1
     9    4    5 2
    10    4    6 1
    11    6   11 ar
    12    6    7 ar
    13    7    8 ar
    14    7   32 1
    15    8    9 ar
    16    8   33 1
    17    9   10 ar
    18    9   34 1
    19   10   11 ar
    20   10   35 1
    21   11   12 1
    22   12   13 1
    23   12   36 1
    24   13   14 1
    25   13   37 1
    26   13   38 1
    27   14   26 1
    28   14   15 2
    29   15   16 1
    30   15   39 1
    31   16   17 2
    32   16   18 1
    33   18   19 1
    34   19   26 ar
    35   19   20 ar
    36   20   21 ar
    37   20   40 1
    38   21   22 1
    39   21   23 ar
    40   22   41 1
    41   23   24 1
    42   23   25 ar
    43   24   42 1
    44   25   26 ar
    45   25   43 1
@<TRIPOS>Similarity
1.3335
@<TRIPOS>ShapeSim
0.7963
@<TRIPOS>PharmSim
0.5372
# END
# Name:		CC(=O)C1=CC=C(C=C1)NC2=C3C=COC3=NC4=C2C=CC(=C4)OC
# Created and modified by SHAFTS on Thu Mar 11 05:28:35 2021

# 

@<TRIPOS>MOLECULE
CC(=O)C1=CC=C(C=C1)NC2=C3C=COC3=NC4=C2C=CC(=C4)OC
   41    44     0
SMALL
USER_CHARGE


@<TRIPOS>ATOM
      1 C1          5.4520   -4.5690   -2.5152 C.3       1 <1>         0.0271
      2 O2          5.9327   -3.3875   -1.8708 O.3       1 <1>        -0.4110
      3 C3          5.0243   -2.6460   -1.1851 C.ar      1 <1>         0.0070
      4 C4          3.6903   -3.0622   -1.1346 C.ar      1 <1>        -0.0542
      5 C5          2.7611   -2.3373   -0.4546 C.ar      1 <1>        -0.0664
      6 C6          3.1406   -1.1582    0.2049 C.ar      1 <1>         0.0015
      7 C7          4.4902   -0.7257    0.1610 C.ar      1 <1>         0.0107
      8 C8          5.4294   -1.4978   -0.5444 C.ar      1 <1>        -0.0010
      9 N9          4.8655    0.3959    0.7847 N.ar      1 <1>        -0.3295
     10 C10         4.0084    1.1408    1.4595 C.ar      1 <1>         0.1023
     11 O11         4.1492    2.2891    2.1547 O.3       1 <1>        -0.3182
     12 C12         2.9746    2.6823    2.6810 C.2       1 <1>         0.0315
     13 C13         2.0079    1.8145    2.3585 C.2       1 <1>        -0.0570
     14 C14         2.6494    0.7729    1.5465 C.ar      1 <1>         0.0128
     15 C15         2.1959   -0.3865    0.9177 C.ar      1 <1>        -0.0263
     16 N16         0.8659   -0.7673    0.9888 N.pl3     1 <1>        -0.3591
     17 C17        -0.0034   -0.4523   -0.0488 C.ar      1 <1>        -0.0635
     18 C18         0.4693    0.2282   -1.1687 C.ar      1 <1>        -0.0644
     19 C19        -0.3816    0.5401   -2.1902 C.ar      1 <1>        -0.0776
     20 C20        -1.7317    0.1743   -2.1108 C.ar      1 <1>        -0.0195
     21 C21        -2.6499    0.5071   -3.2065 C.2       1 <1>         0.0548
     22 C22        -4.0661   -0.0077   -3.1854 C.3       1 <1>         0.0288
     23 O23        -2.2688    1.1965   -4.1290 O.2       1 <1>        -0.4795
     24 C24        -2.2029   -0.5102   -0.9828 C.ar      1 <1>        -0.0796
     25 C25        -1.3440   -0.8228    0.0317 C.ar      1 <1>        -0.0655
     26 H26         5.0270   -5.2418   -1.7704 H         1 <1>         0.0910
     27 H27         4.6851   -4.3001   -3.2417 H         1 <1>         0.0910
     28 H28         6.2772   -5.0660   -3.0251 H         1 <1>         0.1272
     29 H29         3.3941   -3.9689   -1.6411 H         1 <1>         0.1257
     30 H30         1.7337   -2.6685   -0.4228 H         1 <1>         0.1463
     31 H31         6.4626   -1.1865   -0.5904 H         1 <1>         0.1556
     32 H32         2.8325    3.5706    3.2787 H         1 <1>         0.2455
     33 H33         0.9662    1.8696    2.6385 H         1 <1>         0.1296
     34 H34         0.5415   -1.2540    1.7626 H         1 <1>         0.3165
     35 H35         1.5103    0.5096   -1.2290 H         1 <1>         0.1111
     36 H36        -0.0144    1.0682   -3.0577 H         1 <1>         0.1424
     37 H37        -4.2000   -0.6680   -2.3286 H         1 <1>         0.0689
     38 H38        -4.7567    0.8320   -3.1085 H         1 <1>         0.0760
     39 H39        -4.2657   -0.5595   -4.1040 H         1 <1>         0.0760
     40 H40        -3.2429   -0.7940   -0.9177 H         1 <1>         0.1450
     41 H41        -1.7063   -1.3509    0.9014 H         1 <1>         0.1178
@<TRIPOS>BOND
     1    1    2 1
     2    1   26 1
     3    1   27 1
     4    1   28 1
     5    2    3 1
     6    3    8 ar
     7    3    4 ar
     8    4    5 ar
     9    4   29 1
    10    5    6 ar
    11    5   30 1
    12    6   15 ar
    13    6    7 ar
    14    7    8 ar
    15    7    9 ar
    16    8   31 1
    17    9   10 ar
    18   10   14 ar
    19   10   11 1
    20   11   12 1
    21   12   13 2
    22   12   32 1
    23   13   14 1
    24   13   33 1
    25   14   15 ar
    26   15   16 1
    27   16   17 1
    28   16   34 1
    29   17   25 ar
    30   17   18 ar
    31   18   19 ar
    32   18   35 1
    33   19   20 ar
    34   19   36 1
    35   20   21 1
    36   20   24 ar
    37   21   22 1
    38   21   23 2
    39   22   37 1
    40   22   38 1
    41   22   39 1
    42   24   25 ar
    43   24   40 1
    44   25   41 1
@<TRIPOS>Similarity
1.2635
@<TRIPOS>ShapeSim
0.8631
@<TRIPOS>PharmSim
0.4004
# END
# Name:		COC1=C(C=C2C(=C1)C(=C3C=COC3=N2)OC4=CN=CC=C4)OC
# Created and modified by SHAFTS on Thu Mar 11 05:28:35 2021

# 

@<TRIPOS>MOLECULE
COC1=C(C=C2C(=C1)C(=C3C=COC3=N2)OC4=CN=CC=C4)OC
   38    41     0
SMALL
USER_CHARGE


@<TRIPOS>ATOM
      1 C1          7.3320   -2.8792   -1.8717 C.3       1 <1>         0.0302
      2 O2          5.9864   -3.3605   -1.8666 O.3       1 <1>        -0.3962
      3 C3          5.0708   -2.6252   -1.1830 C.ar      1 <1>         0.0615
      4 C4          3.7353   -3.0521   -1.1384 C.ar      1 <1>         0.0510
      5 O5          3.3722   -4.1958   -1.7786 O.3       1 <1>        -0.4009
      6 C6          1.9975   -4.5770   -1.6958 C.3       1 <1>         0.0289
      7 C7          2.7976   -2.3313   -0.4589 C.ar      1 <1>        -0.0296
      8 C8          3.1732   -1.1502    0.2024 C.ar      1 <1>         0.0074
      9 C9          4.5222   -0.7154    0.1598 C.ar      1 <1>         0.0053
     10 C10         5.4646   -1.4851   -0.5451 C.ar      1 <1>         0.0044
     11 N11         4.8942    0.4069    0.7844 N.ar      1 <1>        -0.3306
     12 C12         4.0343    1.1484    1.4578 C.ar      1 <1>         0.1016
     13 O13         4.1700    2.2966    2.1546 O.3       1 <1>        -0.3175
     14 C14         2.9933    2.6854    2.6791 C.2       1 <1>         0.0340
     15 C15         2.0296    1.8152    2.3544 C.2       1 <1>        -0.0538
     16 C16         2.6754    0.7759    1.5423 C.ar      1 <1>         0.0228
     17 C17         2.2272   -0.3825    0.9131 C.ar      1 <1>         0.0521
     18 O18         0.9269   -0.7588    0.9804 O.3       1 <1>        -0.3472
     19 C19         0.0811   -0.3056    0.0183 C.ar      1 <1>         0.0466
     20 C20        -1.2654   -0.6553    0.0407 C.ar      1 <1>        -0.0420
     21 C21        -2.0889   -0.1687   -0.9619 C.ar      1 <1>        -0.0606
     22 C22        -1.5503    0.6416   -1.9437 C.ar      1 <1>        -0.0417
     23 N23        -0.2692    0.9544   -1.9361 N.ar      1 <1>        -0.3980
     24 C24         0.5467    0.5173   -0.9976 C.ar      1 <1>        -0.0037
     25 H25         7.3608   -1.8858   -2.3194 H         1 <1>         0.0917
     26 H26         7.7032   -2.8273   -0.8481 H         1 <1>         0.0917
     27 H27         7.9582   -3.5574   -2.4513 H         1 <1>         0.1278
     28 H28         1.8437   -5.5042   -2.2479 H         1 <1>         0.1277
     29 H29         1.7241   -4.7266   -0.6513 H         1 <1>         0.0915
     30 H30         1.3760   -3.7912   -2.1251 H         1 <1>         0.0915
     31 H31         1.7714   -2.6668   -0.4299 H         1 <1>         0.1372
     32 H32         6.4968   -1.1700   -0.5884 H         1 <1>         0.1559
     33 H33         2.8473    3.5729    3.2771 H         1 <1>         0.2482
     34 H34         0.9876    1.8669    2.6332 H         1 <1>         0.1378
     35 H35        -1.6590   -1.2907    0.8203 H         1 <1>         0.1500
     36 H36        -3.1392   -0.4199   -0.9763 H         1 <1>         0.1421
     37 H37        -2.1873    1.0235   -2.7278 H         1 <1>         0.1941
     38 H38         1.5900    0.7947   -1.0247 H         1 <1>         0.1888
@<TRIPOS>BOND
     1    1    2 1
     2    1   25 1
     3    1   26 1
     4    1   27 1
     5    2    3 1
     6    3   10 ar
     7    3    4 ar
     8    4    5 1
     9    4    7 ar
    10    5    6 1
    11    6   28 1
    12    6   29 1
    13    6   30 1
    14    7    8 ar
    15    7   31 1
    16    8   17 ar
    17    8    9 ar
    18    9   10 ar
    19    9   11 ar
    20   10   32 1
    21   11   12 ar
    22   12   16 ar
    23   12   13 1
    24   13   14 1
    25   14   15 2
    26   14   33 1
    27   15   16 1
    28   15   34 1
    29   16   17 ar
    30   17   18 1
    31   18   19 1
    32   19   24 ar
    33   19   20 ar
    34   20   21 ar
    35   20   35 1
    36   21   22 ar
    37   21   36 1
    38   22   23 ar
    39   22   37 1
    40   23   24 ar
    41   24   38 1
@<TRIPOS>Similarity
1.2045
@<TRIPOS>ShapeSim
0.7975
@<TRIPOS>PharmSim
0.4070
# END
# Name:		COC1=C(OC)C=C2C(N=C(OC=C3)C3=C2OC4=CC=CN=C4)=C1
# Created and modified by SHAFTS on Thu Mar 11 05:28:35 2021

# 

@<TRIPOS>MOLECULE
COC1=C(OC)C=C2C(N=C(OC=C3)C3=C2OC4=CC=CN=C4)=C1
   38    41     0
SMALL
USER_CHARGE


@<TRIPOS>ATOM
      1 C1          7.3320   -2.8792   -1.8717 C.3       1 <1>         0.0302
      2 O2          5.9864   -3.3605   -1.8666 O.3       1 <1>        -0.3962
      3 C3          5.0708   -2.6252   -1.1830 C.ar      1 <1>         0.0615
      4 C4          3.7353   -3.0521   -1.1384 C.ar      1 <1>         0.0510
      5 O5          3.3722   -4.1958   -1.7786 O.3       1 <1>        -0.4009
      6 C6          1.9975   -4.5770   -1.6958 C.3       1 <1>         0.0289
      7 C7          2.7976   -2.3313   -0.4589 C.ar      1 <1>        -0.0296
      8 C8          3.1732   -1.1502    0.2024 C.ar      1 <1>         0.0074
      9 C9          4.5222   -0.7154    0.1598 C.ar      1 <1>         0.0053
     10 C10         5.4646   -1.4851   -0.5451 C.ar      1 <1>         0.0044
     11 N11         4.8942    0.4069    0.7844 N.ar      1 <1>        -0.3306
     12 C12         4.0343    1.1484    1.4578 C.ar      1 <1>         0.1016
     13 O13         4.1700    2.2966    2.1546 O.3       1 <1>        -0.3175
     14 C14         2.9933    2.6854    2.6791 C.2       1 <1>         0.0340
     15 C15         2.0296    1.8152    2.3544 C.2       1 <1>        -0.0538
     16 C16         2.6754    0.7759    1.5423 C.ar      1 <1>         0.0228
     17 C17         2.2272   -0.3825    0.9131 C.ar      1 <1>         0.0521
     18 O18         0.9269   -0.7588    0.9804 O.3       1 <1>        -0.3472
     19 C19         0.0811   -0.3056    0.0183 C.ar      1 <1>         0.0466
     20 C20        -1.2654   -0.6553    0.0407 C.ar      1 <1>        -0.0420
     21 C21        -2.0889   -0.1687   -0.9619 C.ar      1 <1>        -0.0606
     22 C22        -1.5503    0.6416   -1.9437 C.ar      1 <1>        -0.0417
     23 N23        -0.2692    0.9544   -1.9361 N.ar      1 <1>        -0.3980
     24 C24         0.5467    0.5173   -0.9976 C.ar      1 <1>        -0.0037
     25 H25         7.3608   -1.8858   -2.3194 H         1 <1>         0.0917
     26 H26         7.7032   -2.8273   -0.8481 H         1 <1>         0.0917
     27 H27         7.9582   -3.5574   -2.4513 H         1 <1>         0.1278
     28 H28         1.8437   -5.5042   -2.2479 H         1 <1>         0.1277
     29 H29         1.7241   -4.7266   -0.6513 H         1 <1>         0.0915
     30 H30         1.3760   -3.7912   -2.1251 H         1 <1>         0.0915
     31 H31         1.7714   -2.6668   -0.4299 H         1 <1>         0.1372
     32 H32         6.4968   -1.1700   -0.5884 H         1 <1>         0.1559
     33 H33         2.8473    3.5729    3.2771 H         1 <1>         0.2482
     34 H34         0.9876    1.8669    2.6332 H         1 <1>         0.1378
     35 H35        -1.6590   -1.2907    0.8203 H         1 <1>         0.1500
     36 H36        -3.1392   -0.4199   -0.9763 H         1 <1>         0.1421
     37 H37        -2.1873    1.0235   -2.7278 H         1 <1>         0.1941
     38 H38         1.5900    0.7947   -1.0247 H         1 <1>         0.1888
@<TRIPOS>BOND
     1    1    2 1
     2    1   25 1
     3    1   26 1
     4    1   27 1
     5    2    3 1
     6    3   10 ar
     7    3    4 ar
     8    4    5 1
     9    4    7 ar
    10    5    6 1
    11    6   28 1
    12    6   29 1
    13    6   30 1
    14    7    8 ar
    15    7   31 1
    16    8   17 ar
    17    8    9 ar
    18    9   10 ar
    19    9   11 ar
    20   10   32 1
    21   11   12 ar
    22   12   16 ar
    23   12   13 1
    24   13   14 1
    25   14   15 2
    26   14   33 1
    27   15   16 1
    28   15   34 1
    29   16   17 ar
    30   17   18 1
    31   18   19 1
    32   19   24 ar
    33   19   20 ar
    34   20   21 ar
    35   20   35 1
    36   21   22 ar
    37   21   36 1
    38   22   23 ar
    39   22   37 1
    40   23   24 ar
    41   24   38 1
@<TRIPOS>Similarity
1.2045
@<TRIPOS>ShapeSim
0.7975
@<TRIPOS>PharmSim
0.4070
# END
# Name:		C1CC(=O)OC2=CC=CC=C21
# Created and modified by SHAFTS on Thu Mar 11 05:28:35 2021

# 

@<TRIPOS>MOLECULE
C1CC(=O)OC2=CC=CC=C21
   19    20     0
SMALL
USER_CHARGE


@<TRIPOS>ATOM
      1 O1          4.3046    2.3552    2.1600 O.2       1 <1>        -0.4148
      2 C2          4.0406    1.1854    2.0116 C.2       1 <1>         0.1815
      3 C3          2.6727    0.6325    2.3580 C.3       1 <1>         0.0698
      4 C4          2.0943    0.0041    1.0862 C.3       1 <1>        -0.0167
      5 C5          3.1587   -0.8045    0.3881 C.ar      1 <1>        -0.0770
      6 C6          2.7610   -1.7712   -0.5218 C.ar      1 <1>        -0.1012
      7 C7          3.7011   -2.5310   -1.1897 C.ar      1 <1>        -0.1028
      8 C8          5.0481   -2.3281   -0.9533 C.ar      1 <1>        -0.0933
      9 C9          5.4506   -1.3687   -0.0470 C.ar      1 <1>        -0.0548
     10 C10         4.5059   -0.6046    0.6311 C.ar      1 <1>         0.0175
     11 O11         4.9470    0.3159    1.5257 O.3       1 <1>        -0.3041
     12 H12         2.7660   -0.1254    3.1359 H         1 <1>         0.1032
     13 H13         2.0237    1.4381    2.7010 H         1 <1>         0.1104
     14 H14         1.2600   -0.6459    1.3501 H         1 <1>         0.0820
     15 H15         1.7424    0.7920    0.4202 H         1 <1>         0.0749
     16 H16         1.7096   -1.9316   -0.7093 H         1 <1>         0.1274
     17 H17         3.3841   -3.2837   -1.8962 H         1 <1>         0.1169
     18 H18         5.7841   -2.9200   -1.4770 H         1 <1>         0.1341
     19 H19         6.5030   -1.2106    0.1372 H         1 <1>         0.1370
@<TRIPOS>BOND
     1    1    2 2
     2    2   11 1
     3    2    3 1
     4    3    4 1
     5    3   12 1
     6    3   13 1
     7    4    5 1
     8    4   14 1
     9    4   15 1
    10    5   10 ar
    11    5    6 ar
    12    6    7 ar
    13    6   16 1
    14    7    8 ar
    15    7   17 1
    16    8    9 ar
    17    8   18 1
    18    9   10 ar
    19    9   19 1
    20   10   11 1
@<TRIPOS>Similarity
1.2007
@<TRIPOS>ShapeSim
0.6592
@<TRIPOS>PharmSim
0.5416
# END
# Name:		CC(=CCC1=C(C=CC2=C1OC(=O)C=C2)OC)C
# Created and modified by SHAFTS on Thu Mar 11 05:28:35 2021

# 

@<TRIPOS>MOLECULE
CC(=CCC1=C(C=CC2=C1OC(=O)C=C2)OC)C
   34    35     0
SMALL
USER_CHARGE


@<TRIPOS>ATOM
      1 C1          5.3490   -4.2882   -2.3074 C.3       1 <1>         0.0301
      2 O2          5.8405   -3.1087   -1.6677 O.3       1 <1>        -0.4039
      3 C3          4.9405   -2.3591   -0.9814 C.ar      1 <1>         0.0129
      4 C4          3.6077   -2.7610   -0.9237 C.ar      1 <1>        -0.0551
      5 C5          2.6907   -2.0185   -0.2374 C.ar      1 <1>        -0.0830
      6 C6          3.0917   -0.8459    0.4125 C.ar      1 <1>        -0.0369
      7 C7          2.1303   -0.0296    1.1566 C.2       1 <1>        -0.0657
      8 C8          2.5815    1.0974    1.7663 C.2       1 <1>         0.0217
      9 C9          3.9433    1.4497    1.6700 C.2       1 <1>         0.1946
     10 O10         4.3345    2.4629    2.2213 O.2       1 <1>        -0.4260
     11 O11         4.8198    0.6971    0.9867 O.3       1 <1>        -0.2783
     12 C12         4.4368   -0.4347    0.3576 C.ar      1 <1>         0.0540
     13 C13         5.3559   -1.2036   -0.3396 C.ar      1 <1>        -0.0012
     14 C14         6.8012   -0.7814   -0.4032 C.3       1 <1>        -0.0132
     15 C15         7.5528   -1.3866    0.7543 C.2       1 <1>        -0.1309
     16 C16         8.6324   -2.0956    0.5353 C.2       1 <1>        -0.1542
     17 C17         9.0466   -2.4208   -0.8766 C.3       1 <1>        -0.0565
     18 C18         9.4600   -2.5858    1.6953 C.3       1 <1>        -0.0584
     19 H19         4.9214   -4.9559   -1.5595 H         1 <1>         0.0917
     20 H20         4.5817   -4.0155   -3.0321 H         1 <1>         0.0917
     21 H21         6.1688   -4.7927   -2.8187 H         1 <1>         0.1279
     22 H22         3.2980   -3.6658   -1.4255 H         1 <1>         0.1203
     23 H23         1.6589   -2.3348   -0.1963 H         1 <1>         0.1471
     24 H24         1.0907   -0.3157    1.2189 H         1 <1>         0.1620
     25 H25         1.8986    1.7222    2.3229 H         1 <1>         0.1447
     26 H26         7.2391   -1.1250   -1.3403 H         1 <1>         0.0871
     27 H27         6.8649    0.3055   -0.3493 H         1 <1>         0.0871
     28 H28         7.2015   -1.2358    1.7643 H         1 <1>         0.0926
     29 H29         9.6236   -1.5916   -1.2862 H         1 <1>         0.0431
     30 H30         9.6574   -3.3237   -0.8773 H         1 <1>         0.0431
     31 H31         8.1587   -2.5825   -1.4878 H         1 <1>         0.0574
     32 H32         9.1007   -3.5658    2.0095 H         1 <1>         0.0446
     33 H33        10.5037   -2.6622    1.3903 H         1 <1>         0.0446
     34 H34         9.3743   -1.8843    2.5250 H         1 <1>         0.0446
@<TRIPOS>BOND
     1    1    2 1
     2    1   19 1
     3    1   20 1
     4    1   21 1
     5    2    3 1
     6    3   13 ar
     7    3    4 ar
     8    4    5 ar
     9    4   22 1
    10    5    6 ar
    11    5   23 1
    12    6   12 ar
    13    6    7 1
    14    7    8 2
    15    7   24 1
    16    8    9 1
    17    8   25 1
    18    9   10 2
    19    9   11 1
    20   11   12 1
    21   12   13 ar
    22   13   14 1
    23   14   15 1
    24   14   26 1
    25   14   27 1
    26   15   16 2
    27   15   28 1
    28   16   17 1
    29   16   18 1
    30   17   29 1
    31   17   30 1
    32   17   31 1
    33   18   32 1
    34   18   33 1
    35   18   34 1
@<TRIPOS>Similarity
1.1860
@<TRIPOS>ShapeSim
0.6329
@<TRIPOS>PharmSim
0.5531
# END
# Name:		O=C(C1=CC=C(Cl)C(Cl)=C1)NC2=NNC3=C2C=CC=C3
# Created and modified by SHAFTS on Thu Mar 11 05:28:35 2021

# 

@<TRIPOS>MOLECULE
O=C(C1=CC=C(Cl)C(Cl)=C1)NC2=NNC3=C2C=CC=C3
   29    31     0
SMALL
USER_CHARGE


@<TRIPOS>ATOM
      1 O1         -0.7304    1.3489    0.3936 O.2       1 <1>        -0.4383
      2 C2         -0.6524    0.5822   -0.5467 C.2       1 <1>         0.1458
      3 N3          0.4564   -0.1648   -0.7170 N.am      1 <1>        -0.2563
      4 C4          1.5173   -0.0580    0.1880 C.2       1 <1>         0.0577
      5 N5          1.5600    0.7183    1.2382 N.2       1 <1>        -0.2987
      6 N6          2.7788    0.5562    1.9047 N.pl3     1 <1>        -0.3034
      7 C7          3.5380   -0.3694    1.2373 C.ar      1 <1>        -0.0297
      8 C8          4.8056   -0.9071    1.4459 C.ar      1 <1>        -0.0638
      9 C9          5.3001   -1.8395    0.5783 C.ar      1 <1>        -0.0917
     10 C10         4.5532   -2.2612   -0.5143 C.ar      1 <1>        -0.0961
     11 C11         3.3075   -1.7512   -0.7435 C.ar      1 <1>        -0.0776
     12 C12         2.7775   -0.8003    0.1333 C.ar      1 <1>         0.0034
     13 C13        -1.7758    0.4648   -1.4994 C.ar      1 <1>         0.0427
     14 C14        -1.6913   -0.4189   -2.5768 C.ar      1 <1>        -0.0550
     15 C15        -2.7428   -0.5245   -3.4631 C.ar      1 <1>        -0.0543
     16 C16        -3.8811    0.2438   -3.2865 C.ar      1 <1>         0.0258
     17 Cl17       -5.2002    0.1051   -4.4065 Cl        1 <1>        -0.1108
     18 C18        -3.9716    1.1231   -2.2184 C.ar      1 <1>         0.0315
     19 Cl19       -5.4029    2.0818   -2.0040 Cl        1 <1>        -0.1144
     20 C20        -2.9281    1.2334   -1.3223 C.ar      1 <1>        -0.0235
     21 H21         0.5185   -0.7766   -1.4672 H         1 <1>         0.3488
     22 H22         3.0445    1.0246    2.7115 H         1 <1>         0.3825
     23 H23         5.3967   -0.5874    2.2915 H         1 <1>         0.1279
     24 H24         6.2838   -2.2535    0.7438 H         1 <1>         0.1330
     25 H25         4.9616   -2.9989   -1.1890 H         1 <1>         0.1148
     26 H26         2.7329   -2.0838   -1.5953 H         1 <1>         0.1378
     27 H27        -0.8041   -1.0188   -2.7162 H         1 <1>         0.1437
     28 H28        -2.6780   -1.2079   -4.2970 H         1 <1>         0.1480
     29 H29        -2.9992    1.9185   -0.4905 H         1 <1>         0.1702
@<TRIPOS>BOND
     1    1    2 2
     2    2    3 am
     3    2   13 1
     4    3    4 1
     5    3   21 1
     6    4   12 1
     7    4    5 2
     8    5    6 1
     9    6    7 1
    10    6   22 1
    11    7   12 ar
    12    7    8 ar
    13    8    9 ar
    14    8   23 1
    15    9   10 ar
    16    9   24 1
    17   10   11 ar
    18   10   25 1
    19   11   12 ar
    20   11   26 1
    21   13   20 ar
    22   13   14 ar
    23   14   15 ar
    24   14   27 1
    25   15   16 ar
    26   15   28 1
    27   16   17 1
    28   16   18 ar
    29   18   19 1
    30   18   20 ar
    31   20   29 1
@<TRIPOS>Similarity
1.1847
@<TRIPOS>ShapeSim
0.7881
@<TRIPOS>PharmSim
0.3966
# END
# Name:		OC1=C(OC)C=C(/C=C2\C(N(C3=CC=CC=C3)C(N2)=O)=O)C=C1OC
# Created and modified by SHAFTS on Thu Mar 11 05:28:35 2021

# 

@<TRIPOS>MOLECULE
OC1=C(OC)C=C(/C=C2\C(N(C3=CC=CC=C3)C(N2)=O)=O)C=C1OC
   41    43     0
SMALL
USER_CHARGE


@<TRIPOS>ATOM
      1 C1          3.4864   -0.0395   -3.4488 C.3       1 <1>         0.0260
      2 O2          4.2965   -1.0888   -2.9150 O.3       1 <1>        -0.4031
      3 C3          4.1971   -1.3272   -1.5798 C.ar      1 <1>         0.0427
      4 C4          3.3361   -0.5723   -0.8063 C.ar      1 <1>        -0.0413
      5 C5          3.2341   -0.8188    0.5681 C.ar      1 <1>        -0.0624
      6 C6          2.3199   -0.0191    1.3936 C.2       1 <1>        -0.0190
      7 C7          1.1047    0.3393    0.9077 C.2       1 <1>         0.0816
      8 N8          0.1861    1.2285    1.4828 N.am      1 <1>        -0.2581
      9 C9         -0.8845    1.2934    0.6717 C.2       1 <1>         0.1948
     10 O10        -1.8666    1.9791    0.8815 O.2       1 <1>        -0.4309
     11 N11        -0.7254    0.5020   -0.4000 N.am      1 <1>        -0.1791
     12 C12        -1.6606    0.3464   -1.4326 C.ar      1 <1>        -0.0106
     13 C13        -1.3899   -0.5070   -2.4936 C.ar      1 <1>        -0.0647
     14 C14        -2.3135   -0.6582   -3.5095 C.ar      1 <1>        -0.0968
     15 C15        -3.5067    0.0395   -3.4705 C.ar      1 <1>        -0.1023
     16 C16        -3.7789    0.8907   -2.4152 C.ar      1 <1>        -0.0965
     17 C17        -2.8620    1.0412   -1.3933 C.ar      1 <1>        -0.0630
     18 C18         0.4711   -0.1168   -0.3386 C.2       1 <1>         0.1998
     19 O19         0.9306   -0.9014   -1.1477 O.2       1 <1>        -0.4106
     20 C20         4.0056   -1.8298    1.1533 C.ar      1 <1>        -0.0476
     21 C21         4.8643   -2.5803    0.3730 C.ar      1 <1>         0.0364
     22 O22         5.6142   -3.5627    0.9405 O.3       1 <1>        -0.4057
     23 C23         5.4633   -3.7634    2.3473 C.3       1 <1>         0.0269
     24 C24         4.9589   -2.3356   -0.9947 C.ar      1 <1>         0.0585
     25 O25         5.8045   -3.0763   -1.7590 O.3       1 <1>        -0.4161
     26 H26         3.7445    0.9016   -2.9632 H         1 <1>         0.0837
     27 H27         3.6616    0.0449   -4.5213 H         1 <1>         0.1198
     28 H28         2.4352   -0.2649   -3.2690 H         1 <1>         0.0909
     29 H29         2.7429    0.2071   -1.2614 H         1 <1>         0.1245
     30 H30         2.6148    0.2838    2.3874 H         1 <1>         0.1803
     31 H31         0.3020    1.7105    2.3166 H         1 <1>         0.3539
     32 H32        -0.4580   -1.0520   -2.5247 H         1 <1>         0.1411
     33 H33        -2.1032   -1.3217   -4.3353 H         1 <1>         0.1243
     34 H34        -4.2273   -0.0803   -4.2660 H         1 <1>         0.1208
     35 H35        -4.7115    1.4346   -2.3877 H         1 <1>         0.1244
     36 H36        -3.0753    1.7059   -0.5692 H         1 <1>         0.1487
     37 H37         3.9300   -2.0228    2.2132 H         1 <1>         0.1240
     38 H38         5.7311   -2.8483    2.8755 H         1 <1>         0.0912
     39 H39         4.4274   -4.0207    2.5686 H         1 <1>         0.0912
     40 H40         6.1161   -4.5740    2.6708 H         1 <1>         0.1201
     41 H41         5.4031   -3.8743   -2.1293 H         1 <1>         0.3623
@<TRIPOS>BOND
     1    1    2 1
     2    1   26 1
     3    1   27 1
     4    1   28 1
     5    2    3 1
     6    3   24 ar
     7    3    4 ar
     8    4    5 ar
     9    4   29 1
    10    5    6 1
    11    5   20 ar
    12    6    7 2
    13    6   30 1
    14    7   18 1
    15    7    8 1
    16    8    9 am
    17    8   31 1
    18    9   10 2
    19    9   11 am
    20   11   12 1
    21   11   18 am
    22   12   17 ar
    23   12   13 ar
    24   13   14 ar
    25   13   32 1
    26   14   15 ar
    27   14   33 1
    28   15   16 ar
    29   15   34 1
    30   16   17 ar
    31   16   35 1
    32   17   36 1
    33   18   19 2
    34   20   21 ar
    35   20   37 1
    36   21   22 1
    37   21   24 ar
    38   22   23 1
    39   23   38 1
    40   23   39 1
    41   23   40 1
    42   24   25 1
    43   25   41 1
@<TRIPOS>Similarity
1.1656
@<TRIPOS>ShapeSim
0.7221
@<TRIPOS>PharmSim
0.4435
# END
# Name:		FC(F)(F)C1=CC=CC2=C1N=C(C(F)(F)F)C=C2C(C3NCCCC3)O
# Created and modified by SHAFTS on Thu Mar 11 05:28:35 2021

# 

@<TRIPOS>MOLECULE
FC(F)(F)C1=CC=CC2=C1N=C(C(F)(F)F)C=C2C(C3NCCCC3)O
   43    45     0
SMALL
USER_CHARGE


@<TRIPOS>ATOM
      1 O1          0.0619   -0.6759    1.9207 O.3       1 <1>        -0.4648
      2 C2          0.8029   -1.1206    0.7825 C.3       1 <1>        -0.0002
      3 H3          0.8671   -2.2087    0.7933 H         1 <1>         0.1887
      4 C4          2.1908   -0.5352    0.8267 C.ar      1 <1>        -0.0580
      5 C5          3.2638   -1.1676    0.1715 C.ar      1 <1>        -0.0326
      6 C6          3.0817   -2.3620   -0.5444 C.ar      1 <1>        -0.0677
      7 C7          4.1450   -2.9430   -1.1650 C.ar      1 <1>        -0.0682
      8 C8          5.4128   -2.3682   -1.0996 C.ar      1 <1>        -0.0399
      9 C9          5.6250   -1.2116   -0.4150 C.ar      1 <1>         0.0904
     10 C10         7.0050   -0.6086   -0.3582 C.3       1 <1>         0.3721
     11 F11         7.8950   -1.4120   -1.0791 F         1 <1>        -0.1812
     12 F12         6.9769    0.6737   -0.9169 F         1 <1>        -0.1757
     13 F13         7.4242   -0.5278    0.9740 F         1 <1>        -0.1757
     14 C14         4.5520   -0.5812    0.2393 C.ar      1 <1>         0.0218
     15 N15         4.7301    0.5560    0.9184 N.ar      1 <1>        -0.3346
     16 C16         3.7327    1.1483    1.5295 C.ar      1 <1>         0.1104
     17 C17         3.9894    2.4292    2.2807 C.3       1 <1>         0.3938
     18 F18         5.3154    2.8289    2.0817 F         1 <1>        -0.1601
     19 F19         3.1267    3.4257    1.8118 F         1 <1>        -0.1710
     20 F20         3.7646    2.2224    3.6459 F         1 <1>        -0.1656
     21 C21         2.4413    0.6273    1.4990 C.ar      1 <1>        -0.0317
     22 C22         0.0971   -0.6639   -0.4958 C.3       1 <1>        -0.0904
     23 H23         0.6126   -1.0776   -1.3625 H         1 <1>         0.1064
     24 C24        -1.3516   -1.1563   -0.4817 C.3       1 <1>        -0.0665
     25 C25        -2.0536   -0.6971   -1.7628 C.3       1 <1>        -0.0661
     26 C26        -1.9601    0.8279   -1.8660 C.3       1 <1>        -0.0747
     27 C27        -0.4887    1.2468   -1.8289 C.3       1 <1>        -0.1108
     28 N28         0.1181    0.8020   -0.5686 N.4       1 <1>         0.4280
     29 H29        -0.4016    1.1843    0.2072 H         1 <1>         0.1451
     30 H30         1.0731    1.1247   -0.5240 H         1 <1>         0.1451
     31 H31        -0.0353    0.2846    1.9760 H         1 <1>         0.3294
     32 H32         2.1040   -2.8172   -0.6019 H         1 <1>         0.1474
     33 H33         4.0041   -3.8618   -1.7150 H         1 <1>         0.1578
     34 H34         6.2404   -2.8488   -1.6002 H         1 <1>         0.1693
     35 H35         1.6401    1.1383    2.0125 H         1 <1>         0.1486
     36 H36        -1.3655   -2.2450   -0.4291 H         1 <1>         0.0839
     37 H37        -1.8682   -0.7429    0.3846 H         1 <1>         0.0697
     38 H38        -1.5688   -1.1514   -2.6270 H         1 <1>         0.0496
     39 H39        -3.1012   -0.9968   -1.7319 H         1 <1>         0.0638
     40 H40        -2.4088    1.1575   -2.8031 H         1 <1>         0.0788
     41 H41        -2.4892    1.2825   -1.0285 H         1 <1>         0.0575
     42 H42         0.0393    0.7919   -2.6669 H         1 <1>         0.0854
     43 H43        -0.4185    2.3321   -1.9023 H         1 <1>         0.0925
@<TRIPOS>BOND
     1    1    2 1
     2    1   31 1
     3    2    3 1
     4    2    4 1
     5    2   22 1
     6    4   21 ar
     7    4    5 ar
     8    5   14 ar
     9    5    6 ar
    10    6    7 ar
    11    6   32 1
    12    7    8 ar
    13    7   33 1
    14    8    9 ar
    15    8   34 1
    16    9   10 1
    17    9   14 ar
    18   10   11 1
    19   10   12 1
    20   10   13 1
    21   14   15 ar
    22   15   16 ar
    23   16   17 1
    24   16   21 ar
    25   17   18 1
    26   17   19 1
    27   17   20 1
    28   21   35 1
    29   22   23 1
    30   22   28 1
    31   22   24 1
    32   24   25 1
    33   24   36 1
    34   24   37 1
    35   25   26 1
    36   25   38 1
    37   25   39 1
    38   26   27 1
    39   26   40 1
    40   26   41 1
    41   27   28 1
    42   27   42 1
    43   27   43 1
    44   28   29 1
    45   28   30 1
@<TRIPOS>Similarity
1.1449
@<TRIPOS>ShapeSim
0.7853
@<TRIPOS>PharmSim
0.3596
# END
# Name:		CCC(CC1=CC=C(C=C1)C(=O)NCC2=C(C=C(C=C2)OC)C(F)(F)F)C(=O)O
# Created and modified by SHAFTS on Thu Mar 11 05:28:35 2021

# 

@<TRIPOS>MOLECULE
CCC(CC1=CC=C(C=C1)C(=O)NCC2=C(C=C(C=C2)OC)C(F)(F)F)C(=O)O
   50    51     0
SMALL
USER_CHARGE


@<TRIPOS>ATOM
      1 C1         -7.0769   -2.1089   -5.7497 C.3       1 <1>        -0.1400
      2 C2         -6.3392   -0.7715   -5.6586 C.3       1 <1>        -0.1000
      3 C3         -5.4218   -0.7775   -4.4342 C.3       1 <1>        -0.1500
      4 H4         -4.7556   -1.6389   -4.4836 H         1 <1>         0.0600
      5 C5         -4.5924    0.5080   -4.4120 C.3       1 <1>        -0.0700
      6 C6         -3.6029    0.4479   -3.2771 C.ar      1 <1>        -0.0300
      7 C7         -3.9587    0.9227   -2.0272 C.ar      1 <1>        -0.1000
      8 C8         -3.0574    0.8710   -0.9840 C.ar      1 <1>        -0.0500
      9 C9         -1.7842    0.3378   -1.1916 C.ar      1 <1>        -0.1500
     10 C10        -0.8134    0.2788   -0.0781 C.2       1 <1>         0.5700
     11 O11        -1.1232    0.6952    1.0210 O.2       1 <1>        -0.5400
     12 N12         0.4151   -0.2366   -0.2818 N.am      1 <1>        -0.7300
     13 C13         1.3772   -0.2951    0.8215 C.3       1 <1>         0.1500
     14 C14         2.6638   -0.9098    0.3340 C.ar      1 <1>        -0.0900
     15 C15         2.9320   -2.2419    0.5884 C.ar      1 <1>        -0.0600
     16 C16         4.1107   -2.8079    0.1421 C.ar      1 <1>        -0.1800
     17 C17         5.0254   -2.0385   -0.5616 C.ar      1 <1>         0.1300
     18 O18         6.1853   -2.5930   -1.0020 O.3       1 <1>        -0.3100
     19 C19         6.3978   -3.9745   -0.7046 C.3       1 <1>         0.0200
     20 C20         4.7539   -0.7016   -0.8156 C.ar      1 <1>        -0.1100
     21 C21         3.5717   -0.1418   -0.3719 C.ar      1 <1>        -0.1300
     22 C22         3.2760    1.3099   -0.6479 C.3       1 <1>         0.5100
     23 F23         4.3384    1.8747   -1.3616 F         1 <1>        -0.1800
     24 F24         2.1017    1.4115   -1.4014 F         1 <1>        -0.1600
     25 F25         3.1134    1.9910    0.5633 F         1 <1>        -0.1700
     26 C26        -1.4318   -0.1399   -2.4549 C.ar      1 <1>        -0.0900
     27 C27        -2.3444   -0.0871   -3.4882 C.ar      1 <1>        -0.1300
     28 C28        -6.2559   -0.8589   -3.1818 C.2       1 <1>         0.5100
     29 O29        -6.1156   -1.7970   -2.4157 O.co2     1 <1>        -0.5000
     30 O30        -7.0712    0.0133   -2.9346 O.co2     1 <1>        -0.5000
     31 H31        -6.3523   -2.9179   -5.8427 H         1 <1>         0.0500
     32 H32        -7.6733   -2.2569   -4.8495 H         1 <1>         0.0600
     33 H33        -7.7305   -2.1046   -6.6220 H         1 <1>         0.0400
     34 H34        -5.7428   -0.6235   -6.5589 H         1 <1>         0.0400
     35 H35        -7.0638    0.0375   -5.5657 H         1 <1>         0.0600
     36 H36        -4.0571    0.6114   -5.3558 H         1 <1>         0.0600
     37 H37        -5.2529    1.3640   -4.2732 H         1 <1>         0.0800
     38 H38        -4.9441    1.3350   -1.8678 H         1 <1>         0.1400
     39 H39        -3.3361    1.2425   -0.0089 H         1 <1>         0.1300
     40 H40         0.6624   -0.5688   -1.1590 H         1 <1>         0.4000
     41 H41         1.5719    0.7130    1.1875 H         1 <1>         0.0900
     42 H42         0.9675   -0.9020    1.6289 H         1 <1>         0.0900
     43 H43         2.2196   -2.8405    1.1366 H         1 <1>         0.1400
     44 H44         4.3199   -3.8486    0.3413 H         1 <1>         0.1400
     45 H45         6.3963   -4.1180    0.3759 H         1 <1>         0.0600
     46 H46         5.6008   -4.5690   -1.1512 H         1 <1>         0.0600
     47 H47         7.3584   -4.2902   -1.1117 H         1 <1>         0.1000
     48 H48         5.4646   -0.1004   -1.3630 H         1 <1>         0.1500
     49 H49        -0.4482   -0.5532   -2.6222 H         1 <1>         0.1200
     50 H50        -2.0732   -0.4566   -4.4660 H         1 <1>         0.1200
@<TRIPOS>BOND
     1    1    2 1
     2    1   31 1
     3    1   32 1
     4    1   33 1
     5    2    3 1
     6    2   34 1
     7    2   35 1
     8    3    4 1
     9    3    5 1
    10    3   28 1
    11    5    6 1
    12    5   36 1
    13    5   37 1
    14    6   27 ar
    15    6    7 ar
    16    7    8 ar
    17    7   38 1
    18    8    9 ar
    19    8   39 1
    20    9   10 1
    21    9   26 ar
    22   10   11 2
    23   10   12 am
    24   12   13 1
    25   12   40 1
    26   13   14 1
    27   13   41 1
    28   13   42 1
    29   14   21 ar
    30   14   15 ar
    31   15   16 ar
    32   15   43 1
    33   16   17 ar
    34   16   44 1
    35   17   18 1
    36   17   20 ar
    37   18   19 1
    38   19   45 1
    39   19   46 1
    40   19   47 1
    41   20   21 ar
    42   20   48 1
    43   21   22 1
    44   22   23 1
    45   22   24 1
    46   22   25 1
    47   26   27 ar
    48   26   49 1
    49   27   50 1
    50   28   29 ar
    51   28   30 ar
@<TRIPOS>Similarity
1.1402
@<TRIPOS>ShapeSim
0.6823
@<TRIPOS>PharmSim
0.4579
# END
# Name:		O=C(NC1=CC=C(S(=O)(N)=O)C=C/21)C2=C/C(C3=C4)=CN(C3=CC=C4OC)C
# Created and modified by SHAFTS on Thu Mar 11 05:28:35 2021

# 

@<TRIPOS>MOLECULE
O=C(NC1=CC=C(S(=O)(N)=O)C=C/21)C2=C/C(C3=C4)=CN(C3=CC=C4OC)C
   44    47     0
SMALL
USER_CHARGE


@<TRIPOS>ATOM
      1 C1          7.0875   -3.3594   -1.5812 C.3       1 <1>         0.0218
      2 O2          5.7145   -3.0840   -1.8655 O.3       1 <1>        -0.4201
      3 C3          5.0309   -2.3455   -0.9510 C.ar      1 <1>        -0.0108
      4 C4          5.6749   -1.8911    0.1953 C.ar      1 <1>        -0.0626
      5 C5          4.9952   -1.1419    1.1307 C.ar      1 <1>        -0.0679
      6 C6          3.6531   -0.8334    0.9338 C.ar      1 <1>        -0.0463
      7 C7          3.0031   -1.2918   -0.2226 C.ar      1 <1>        -0.0530
      8 C8          3.6986   -2.0432   -1.1653 C.ar      1 <1>        -0.0452
      9 C9          1.6134   -0.8019   -0.1290 C.2       1 <1>        -0.0334
     10 C10         0.5737   -1.0125   -1.0656 C.2       1 <1>        -0.0429
     11 C11        -0.3522   -0.0172   -1.3043 C.2       1 <1>         0.0368
     12 C12        -0.3250    1.3648   -0.8101 C.2       1 <1>         0.1140
     13 O13         0.5359    1.8543   -0.1003 O.2       1 <1>        -0.4680
     14 N14        -1.4153    1.9958   -1.2779 N.am      1 <1>        -0.2939
     15 C15        -2.1934    1.1506   -2.0593 C.ar      1 <1>        -0.0331
     16 C16        -3.3883    1.3571   -2.7396 C.ar      1 <1>        -0.0504
     17 C17        -3.9638    0.3276   -3.4566 C.ar      1 <1>         0.0060
     18 C18        -3.3624   -0.9187   -3.5081 C.ar      1 <1>         0.2935
     19 S19        -4.1130   -2.2204   -4.4284 S.o2      1 <1>        -0.0668
     20 N20        -3.5138   -2.1395   -5.9700 N.am      1 <1>        -0.1574
     21 O21        -3.6288   -3.4354   -3.8728 O.2       1 <1>        -0.0810
     22 O22        -5.4953   -1.9031   -4.5178 O.2       1 <1>        -0.0810
     23 C23        -2.1753   -1.1426   -2.8398 C.ar      1 <1>         0.0154
     24 C24        -1.5842   -0.1103   -2.1195 C.ar      1 <1>        -0.0263
     25 C25         1.5313   -0.0977    1.0553 C.2       1 <1>        -0.0284
     26 N26         2.7334   -0.1186    1.6776 N.pl3     1 <1>        -0.3658
     27 C27         3.0196    0.5264    2.9615 C.3       1 <1>        -0.0049
     28 H28         7.5135   -3.9549   -2.3888 H         1 <1>         0.1207
     29 H29         7.6357   -2.4214   -1.4935 H         1 <1>         0.0846
     30 H30         7.1609   -3.9121   -0.6446 H         1 <1>         0.0918
     31 H31         6.7167   -2.1279    0.3535 H         1 <1>         0.1155
     32 H32         5.5045   -0.7943    2.0174 H         1 <1>         0.1376
     33 H33         3.1982   -2.3955   -2.0552 H         1 <1>         0.1346
     34 H34         0.5048   -1.9521   -1.5937 H         1 <1>         0.1831
     35 H35        -1.6318    2.9231   -1.0932 H         1 <1>         0.3373
     36 H36        -3.8670    2.3246   -2.7067 H         1 <1>         0.1352
     37 H37        -4.8922    0.4956   -3.9821 H         1 <1>         0.1604
     38 H38        -3.4307   -2.9470   -6.5010 H         1 <1>         0.3213
     39 H39        -3.2460   -1.2847   -6.3421 H         1 <1>         0.3213
     40 H40        -1.7056   -2.1142   -2.8795 H         1 <1>         0.1673
     41 H41         0.6450    0.3941    1.4281 H         1 <1>         0.2331
     42 H42         2.8201   -0.1741    3.7724 H         1 <1>         0.1045
     43 H43         4.0665    0.8281    2.9911 H         1 <1>         0.1117
     44 H44         2.3849    1.4051    3.0760 H         1 <1>         0.1117
@<TRIPOS>BOND
     1    1    2 1
     2    1   28 1
     3    1   29 1
     4    1   30 1
     5    2    3 1
     6    3    8 ar
     7    3    4 ar
     8    4    5 ar
     9    4   31 1
    10    5    6 ar
    11    5   32 1
    12    6   26 1
    13    6    7 ar
    14    7    8 ar
    15    7    9 1
    16    8   33 1
    17    9   10 1
    18    9   25 2
    19   10   11 2
    20   10   34 1
    21   11   24 1
    22   11   12 1
    23   12   13 2
    24   12   14 am
    25   14   15 1
    26   14   35 1
    27   15   24 ar
    28   15   16 ar
    29   16   17 ar
    30   16   36 1
    31   17   18 ar
    32   17   37 1
    33   18   19 1
    34   18   23 ar
    35   19   20 am
    36   19   21 2
    37   19   22 2
    38   20   38 1
    39   20   39 1
    40   23   24 ar
    41   23   40 1
    42   25   26 1
    43   25   41 1
    44   26   27 1
    45   27   42 1
    46   27   43 1
    47   27   44 1
@<TRIPOS>Similarity
1.1362
@<TRIPOS>ShapeSim
0.7305
@<TRIPOS>PharmSim
0.4057
# END
# Name:		CC1=NCCC2=C1NC3=C2C=CC(=C3)O
# Created and modified by SHAFTS on Thu Mar 11 05:28:35 2021

# 

@<TRIPOS>MOLECULE
CC1=NCCC2=C1NC3=C2C=CC(=C3)O
   28    30     0
SMALL
USER_CHARGE


@<TRIPOS>ATOM
      1 C1          3.8411    3.3317    2.4894 C.3       1 <1>         0.0421
      2 C2          2.9910    2.0968    2.3353 C.2       1 <1>         0.0096
      3 N3          1.8415    1.9919    2.9321 N.2       1 <1>        -0.3704
      4 H4          1.5300    2.7443    3.4593 H         1 <1>         0.3742
      5 C5          0.9940    0.8115    2.8550 C.3       1 <1>         0.0118
      6 C6          1.0769    0.1078    1.4993 C.3       1 <1>         0.0009
      7 C7          2.5269    0.0139    1.0985 C.2       1 <1>        -0.0563
      8 C8          3.4295    0.9702    1.5000 C.2       1 <1>        -0.0002
      9 N9          4.6726    0.6554    1.0109 N.pl3     1 <1>        -0.3461
     10 C10         4.5736   -0.5043    0.2920 C.ar      1 <1>        -0.0394
     11 C11         5.5278   -1.2434   -0.4008 C.ar      1 <1>        -0.0223
     12 C12         5.0907   -2.3975   -1.0388 C.ar      1 <1>        -0.0157
     13 O13         5.9887   -3.1500   -1.7268 O.3       1 <1>        -0.4228
     14 C14         3.7621   -2.8064   -0.9943 C.ar      1 <1>        -0.0485
     15 C15         2.8031   -2.0977   -0.3199 C.ar      1 <1>        -0.0660
     16 C16         3.2138   -0.9228    0.3318 C.ar      1 <1>        -0.0421
     17 H17         3.5805    4.0513    1.7133 H         1 <1>         0.1219
     18 H18         3.6642    3.7746    3.4696 H         1 <1>         0.1075
     19 H19         4.8932    3.0625    2.3968 H         1 <1>         0.1075
     20 H20         1.2957    0.1108    3.6336 H         1 <1>         0.1317
     21 H21        -0.0394    1.1084    3.0340 H         1 <1>         0.1461
     22 H22         0.6535   -0.8934    1.5795 H         1 <1>         0.1144
     23 H23         0.5273    0.6826    0.7539 H         1 <1>         0.1001
     24 H24         5.4839    1.1683    1.1511 H         1 <1>         0.3480
     25 H25         6.5616   -0.9336   -0.4411 H         1 <1>         0.1460
     26 H26         6.4165   -3.8353   -1.1954 H         1 <1>         0.3758
     27 H27         3.4769   -3.7122   -1.5087 H         1 <1>         0.1325
     28 H28         1.7745   -2.4261   -0.2938 H         1 <1>         0.1597
@<TRIPOS>BOND
     1    1    2 1
     2    1   17 1
     3    1   18 1
     4    1   19 1
     5    2    8 1
     6    2    3 2
     7    3    4 1
     8    3    5 1
     9    5    6 1
    10    5   20 1
    11    5   21 1
    12    6    7 1
    13    6   22 1
    14    6   23 1
    15    7   16 1
    16    7    8 2
    17    8    9 1
    18    9   10 1
    19    9   24 1
    20   10   16 ar
    21   10   11 ar
    22   11   12 ar
    23   11   25 1
    24   12   13 1
    25   12   14 ar
    26   13   26 1
    27   14   15 ar
    28   14   27 1
    29   15   16 ar
    30   15   28 1
@<TRIPOS>Similarity
1.1355
@<TRIPOS>ShapeSim
0.6847
@<TRIPOS>PharmSim
0.4509
# END
# Name:		CN1C(=O)C=C(N=C1N2CCOC(C2)C3=C(C=C(C=C3)C#N)F)C4=NC=NC=C4
# Created and modified by SHAFTS on Thu Mar 11 05:28:35 2021

# 

@<TRIPOS>MOLECULE
CN1C(=O)C=C(N=C1N2CCOC(C2)C3=C(C=C(C=C3)C#N)F)C4=NC=NC=C4
   46    49     0
SMALL
USER_CHARGE


@<TRIPOS>ATOM
      1 C1          1.9929    3.1078    2.4203 C.3       1 <1>         0.0180
      2 N2          2.6842    2.0339    1.7026 N.am      1 <1>        -0.2477
      3 C3          4.0212    1.8948    1.8236 C.2       1 <1>         0.1280
      4 O4          4.6637    2.6569    2.5272 O.2       1 <1>        -0.4810
      5 C5          4.6601    0.8557    1.1248 C.2       1 <1>         0.0597
      6 C6          3.8920    0.0139    0.3381 C.2       1 <1>         0.0521
      7 C7          4.5328   -1.0941   -0.4134 C.ar      1 <1>         0.0415
      8 C8          3.7677   -1.9444   -1.2136 C.ar      1 <1>        -0.0027
      9 C9          4.4145   -2.9632   -1.8950 C.ar      1 <1>        -0.0176
     10 N10         5.7245   -3.0950   -1.7656 N.ar      1 <1>        -0.3698
     11 C11         6.4184   -2.2743   -1.0013 C.ar      1 <1>         0.0320
     12 N12         5.8475   -1.2901   -0.3399 N.ar      1 <1>        -0.3442
     13 N13         2.5684    0.2030    0.2584 N.2       1 <1>        -0.3095
     14 C14         1.9767    1.1750    0.9198 C.2       1 <1>         0.0912
     15 N15         0.6206    1.3319    0.8091 N.pl3     1 <1>        -0.3370
     16 C16        -0.1965    1.7050    1.9747 C.3       1 <1>         0.0112
     17 C17        -1.3706    0.7246    2.0760 C.3       1 <1>         0.0291
     18 O18        -2.0472    0.6691    0.8179 O.3       1 <1>        -0.4400
     19 C19        -1.2429    0.1802   -0.2582 C.3       1 <1>         0.0535
     20 H20        -0.8681   -0.8128   -0.0107 H         1 <1>         0.1386
     21 C21        -2.0731    0.1064   -1.5138 C.ar      1 <1>        -0.0039
     22 C22        -3.1768    0.9271   -1.6589 C.ar      1 <1>        -0.0582
     23 C23        -3.9415    0.8649   -2.8057 C.ar      1 <1>        -0.0399
     24 C24        -3.5999   -0.0291   -3.8222 C.ar      1 <1>         0.0660
     25 C25        -4.3896   -0.0976   -5.0148 C.1       1 <1>         0.0680
     26 N26        -5.0161   -0.1519   -5.9609 N.1       1 <1>        -0.3673
     27 C27        -2.4848   -0.8557   -3.6714 C.ar      1 <1>         0.0066
     28 C28        -1.7240   -0.7798   -2.5207 C.ar      1 <1>         0.0926
     29 F29        -0.6444   -1.5784   -2.3720 F         1 <1>        -0.2572
     30 C30        -0.0616    1.1383   -0.4803 C.3       1 <1>         0.0239
     31 H31         1.6216    2.7284    3.3722 H         1 <1>         0.1009
     32 H32         2.6866    3.9286    2.6019 H         1 <1>         0.1153
     33 H33         1.1560    3.4654    1.8204 H         1 <1>         0.1081
     34 H34         5.7285    0.7169    1.1995 H         1 <1>         0.1639
     35 H35         2.6992   -1.8120   -1.2992 H         1 <1>         0.1553
     36 H36         3.8561   -3.6412   -2.5234 H         1 <1>         0.2205
     37 H37         7.4865   -2.4117   -0.9186 H         1 <1>         0.2896
     38 H38         0.4080    1.6486    2.8800 H         1 <1>         0.1218
     39 H39        -0.5751    2.7193    1.8481 H         1 <1>         0.1146
     40 H40        -0.9962   -0.2665    2.3320 H         1 <1>         0.0988
     41 H41        -2.0625    1.0636    2.8469 H         1 <1>         0.1422
     42 H42        -3.4410    1.6183   -0.8722 H         1 <1>         0.1542
     43 H43        -4.8031    1.5064   -2.9166 H         1 <1>         0.1476
     44 H44        -2.2152   -1.5494   -4.4540 H         1 <1>         0.1576
     45 H45        -0.4292    2.0938   -0.8544 H         1 <1>         0.1246
     46 H46         0.6328    0.7044   -1.1998 H         1 <1>         0.1390
@<TRIPOS>BOND
     1    1    2 1
     2    1   31 1
     3    1   32 1
     4    1   33 1
     5    2   14 1
     6    2    3 am
     7    3    4 2
     8    3    5 1
     9    5    6 2
    10    5   34 1
    11    6    7 1
    12    6   13 1
    13    7   12 ar
    14    7    8 ar
    15    8    9 ar
    16    8   35 1
    17    9   10 ar
    18    9   36 1
    19   10   11 ar
    20   11   12 ar
    21   11   37 1
    22   13   14 2
    23   14   15 1
    24   15   30 1
    25   15   16 1
    26   16   17 1
    27   16   38 1
    28   16   39 1
    29   17   18 1
    30   17   40 1
    31   17   41 1
    32   18   19 1
    33   19   20 1
    34   19   21 1
    35   19   30 1
    36   21   28 ar
    37   21   22 ar
    38   22   23 ar
    39   22   42 1
    40   23   24 ar
    41   23   43 1
    42   24   25 1
    43   24   27 ar
    44   25   26 3
    45   27   28 ar
    46   27   44 1
    47   28   29 1
    48   30   45 1
    49   30   46 1
@<TRIPOS>Similarity
1.1353
@<TRIPOS>ShapeSim
0.8039
@<TRIPOS>PharmSim
0.3314
# END
# Name:		C1=CC(=CN=C1)CNC(=O)C2=CC=C(O2)[N+](=O)[O-]
# Created and modified by SHAFTS on Thu Mar 11 05:28:35 2021

# 

@<TRIPOS>MOLECULE
C1=CC(=CN=C1)CNC(=O)C2=CC=C(O2)[N+](=O)[O-]
   27    28     0
SMALL
USER_CHARGE


@<TRIPOS>ATOM
      1 O1         -1.4418    0.0732    0.9724 O.2       1 <1>        -0.4396
      2 C2         -1.0166   -0.0050   -0.1653 C.2       1 <1>         0.1668
      3 N3          0.2899   -0.2560   -0.3807 N.am      1 <1>        -0.3209
      4 C4          1.1983   -0.4347    0.7548 C.3       1 <1>         0.0016
      5 C5          2.5916   -0.7016    0.2461 C.ar      1 <1>        -0.0547
      6 C6          3.0124   -1.9993    0.0001 C.ar      1 <1>        -0.0828
      7 C7          4.3028   -2.1972   -0.4678 C.ar      1 <1>        -0.0679
      8 C8          5.1204   -1.1020   -0.6717 C.ar      1 <1>        -0.0412
      9 N9          4.6863    0.1190   -0.4267 N.ar      1 <1>        -0.4005
     10 C10         3.4642    0.3450    0.0137 C.ar      1 <1>        -0.0343
     11 C11        -1.9272    0.1678   -1.3018 C.2       1 <1>         0.1514
     12 C12        -3.2661    0.4250   -1.2254 C.2       1 <1>        -0.0119
     13 C13        -3.7360    0.5129   -2.5451 C.2       1 <1>        -0.0070
     14 C14        -2.6769    0.3081   -3.3589 C.2       1 <1>         0.1912
     15 N15        -2.7131    0.3133   -4.8387 N.pl3     1 <1>         0.0647
     16 O16        -3.7635    0.5145   -5.4216 O.2       1 <1>        -0.1946
     17 O17        -1.6925    0.1161   -5.4736 O.2       1 <1>        -0.2000
     18 O18        -1.5878    0.1064   -2.6061 O.3       1 <1>        -0.3036
     19 H19         0.6287   -0.3185   -1.2874 H         1 <1>         0.3121
     20 H20         1.2008    0.4692    1.3638 H         1 <1>         0.1264
     21 H21         0.8640   -1.2786    1.3583 H         1 <1>         0.1264
     22 H22         2.3511   -2.8363    0.1689 H         1 <1>         0.1425
     23 H23         4.6642   -3.1947   -0.6698 H         1 <1>         0.1274
     24 H24         6.1268   -1.2477   -1.0354 H         1 <1>         0.2022
     25 H25         3.1440    1.3589    0.2031 H         1 <1>         0.2054
     26 H26        -3.8503    0.5384   -0.3242 H         1 <1>         0.1767
     27 H27        -4.7530    0.7073   -2.8523 H         1 <1>         0.1842
@<TRIPOS>BOND
     1    1    2 2
     2    2    3 am
     3    2   11 1
     4    3    4 1
     5    3   19 1
     6    4    5 1
     7    4   20 1
     8    4   21 1
     9    5   10 ar
    10    5    6 ar
    11    6    7 ar
    12    6   22 1
    13    7    8 ar
    14    7   23 1
    15    8    9 ar
    16    8   24 1
    17    9   10 ar
    18   10   25 1
    19   11   18 1
    20   11   12 2
    21   12   13 1
    22   12   26 1
    23   13   14 2
    24   13   27 1
    25   14   15 1
    26   14   18 1
    27   15   16 2
    28   15   17 2
@<TRIPOS>Similarity
1.1352
@<TRIPOS>ShapeSim
0.7705
@<TRIPOS>PharmSim
0.3647
# END
# Name:		ClC1=CC2=C(C=C1)C(NC(C)CCCN(CC)CC)=CC=N2
# Created and modified by SHAFTS on Thu Mar 11 05:28:35 2021

# 

@<TRIPOS>MOLECULE
ClC1=CC2=C(C=C1)C(NC(C)CCCN(CC)CC)=CC=N2
   49    50     0
SMALL
USER_CHARGE


@<TRIPOS>ATOM
      1 C1         -1.8175   -0.2693   -4.9094 C.3       1 <1>        -0.0699
      2 C2         -1.8931   -0.9083   -3.5212 C.3       1 <1>        -0.1090
      3 N3         -2.9514   -0.2557   -2.7389 N.4       1 <1>         0.4010
      4 H4         -2.7938    0.7408   -2.7253 H         1 <1>         0.1568
      5 C5         -4.2569   -0.5366   -3.3512 C.3       1 <1>        -0.1090
      6 C6         -5.3430    0.2584   -2.6236 C.3       1 <1>        -0.0699
      7 C7         -2.9338   -0.7731   -1.3641 C.3       1 <1>        -0.1060
      8 C8         -1.6228   -0.3720   -0.6850 C.3       1 <1>        -0.0689
      9 C9         -1.6044   -0.9109    0.7468 C.3       1 <1>        -0.0475
     10 C10        -0.2933   -0.5099    1.4259 C.3       1 <1>        -0.0534
     11 H11        -0.1695    0.5714    1.3668 H         1 <1>         0.1104
     12 C12        -0.3270   -0.9399    2.8938 C.3       1 <1>        -0.0487
     13 N13         0.8278   -1.1675    0.7500 N.pl3     1 <1>        -0.4089
     14 C14         2.0950   -0.6078    0.8050 C.ar      1 <1>        -0.0567
     15 C15         3.1925   -1.2209    0.1553 C.ar      1 <1>        -0.0136
     16 C16         3.0399   -2.4133   -0.5660 C.ar      1 <1>        -0.0744
     17 C17         4.1201   -2.9733   -1.1783 C.ar      1 <1>        -0.0674
     18 C18         5.3767   -2.3754   -1.0964 C.ar      1 <1>         0.0045
     19 Cl19        6.7302   -3.1185   -1.8897 Cl        1 <1>        -0.1272
     20 C20         5.5588   -1.2165   -0.4034 C.ar      1 <1>        -0.0184
     21 C21         4.4667   -0.6102    0.2405 C.ar      1 <1>        -0.0126
     22 N22         4.6174    0.5281    0.9272 N.ar      1 <1>        -0.3928
     23 C23         3.6066    1.1063    1.5336 C.ar      1 <1>        -0.0318
     24 C24         2.3259    0.5733    1.4933 C.ar      1 <1>        -0.0374
     25 H25        -0.9622   -0.6748   -5.4499 H         1 <1>         0.0665
     26 H26        -2.7322   -0.4881   -5.4603 H         1 <1>         0.0451
     27 H27        -1.7043    0.8099   -4.8070 H         1 <1>         0.0451
     28 H28        -2.1178   -1.9701   -3.6217 H         1 <1>         0.0837
     29 H29        -0.9370   -0.7856   -3.0123 H         1 <1>         0.0837
     30 H30        -4.2358   -0.2459   -4.4014 H         1 <1>         0.0837
     31 H31        -4.4729   -1.6021   -3.2734 H         1 <1>         0.0837
     32 H32        -5.4398   -0.1094   -1.6021 H         1 <1>         0.0451
     33 H33        -5.0705    1.3136   -2.6055 H         1 <1>         0.0451
     34 H34        -6.2926    0.1372   -3.1448 H         1 <1>         0.0665
     35 H35        -3.7734   -0.3559   -0.8081 H         1 <1>         0.0871
     36 H36        -3.0153   -1.8599   -1.3838 H         1 <1>         0.0871
     37 H37        -0.7831   -0.7892   -1.2410 H         1 <1>         0.0582
     38 H38        -1.5414    0.7147   -0.6653 H         1 <1>         0.0582
     39 H39        -2.4440   -0.4937    1.3029 H         1 <1>         0.0706
     40 H40        -1.6858   -1.9977    0.7271 H         1 <1>         0.0634
     41 H41         0.6071   -0.6543    3.3776 H         1 <1>         0.0461
     42 H42        -1.1611   -0.4507    3.3968 H         1 <1>         0.0461
     43 H43        -0.4508   -2.0213    2.9529 H         1 <1>         0.0389
     44 H44         0.6835   -1.9944    0.2639 H         1 <1>         0.2840
     45 H45         2.0711   -2.8855   -0.6355 H         1 <1>         0.1308
     46 H46         4.0017   -3.8920   -1.7337 H         1 <1>         0.1344
     47 H47         6.5387   -0.7659   -0.3489 H         1 <1>         0.1615
     48 H48         3.7759    2.0247    2.0763 H         1 <1>         0.2168
     49 H49         1.5144    1.0722    2.0019 H         1 <1>         0.1193
@<TRIPOS>BOND
     1    1    2 1
     2    1   25 1
     3    1   26 1
     4    1   27 1
     5    2    3 1
     6    2   28 1
     7    2   29 1
     8    3    4 1
     9    3    5 1
    10    3    7 1
    11    5    6 1
    12    5   30 1
    13    5   31 1
    14    6   32 1
    15    6   33 1
    16    6   34 1
    17    7    8 1
    18    7   35 1
    19    7   36 1
    20    8    9 1
    21    8   37 1
    22    8   38 1
    23    9   10 1
    24    9   39 1
    25    9   40 1
    26   10   11 1
    27   10   12 1
    28   10   13 1
    29   12   41 1
    30   12   42 1
    31   12   43 1
    32   13   14 1
    33   13   44 1
    34   14   24 ar
    35   14   15 ar
    36   15   21 ar
    37   15   16 ar
    38   16   17 ar
    39   16   45 1
    40   17   18 ar
    41   17   46 1
    42   18   19 1
    43   18   20 ar
    44   20   21 ar
    45   20   47 1
    46   21   22 ar
    47   22   23 ar
    48   23   24 ar
    49   23   48 1
    50   24   49 1
@<TRIPOS>Similarity
1.1337
@<TRIPOS>ShapeSim
0.8177
@<TRIPOS>PharmSim
0.3160
# END
# Name:		CCN(CC)CCCC(C)NC1=C2C=CC(=CC2=NC=C1)Cl
# Created and modified by SHAFTS on Thu Mar 11 05:28:35 2021

# 

@<TRIPOS>MOLECULE
CCN(CC)CCCC(C)NC1=C2C=CC(=CC2=NC=C1)Cl
   49    50     0
SMALL
USER_CHARGE


@<TRIPOS>ATOM
      1 C1         -1.8175   -0.2693   -4.9094 C.3       1 <1>        -0.0699
      2 C2         -1.8931   -0.9083   -3.5212 C.3       1 <1>        -0.1090
      3 N3         -2.9514   -0.2557   -2.7389 N.4       1 <1>         0.4010
      4 H4         -2.7938    0.7408   -2.7253 H         1 <1>         0.1568
      5 C5         -4.2569   -0.5366   -3.3512 C.3       1 <1>        -0.1090
      6 C6         -5.3430    0.2584   -2.6236 C.3       1 <1>        -0.0699
      7 C7         -2.9338   -0.7731   -1.3641 C.3       1 <1>        -0.1060
      8 C8         -1.6228   -0.3720   -0.6850 C.3       1 <1>        -0.0689
      9 C9         -1.6044   -0.9109    0.7468 C.3       1 <1>        -0.0475
     10 C10        -0.2933   -0.5099    1.4259 C.3       1 <1>        -0.0534
     11 H11        -0.1695    0.5714    1.3668 H         1 <1>         0.1104
     12 C12        -0.3270   -0.9399    2.8938 C.3       1 <1>        -0.0487
     13 N13         0.8278   -1.1675    0.7500 N.pl3     1 <1>        -0.4089
     14 C14         2.0950   -0.6078    0.8050 C.ar      1 <1>        -0.0567
     15 C15         3.1925   -1.2209    0.1553 C.ar      1 <1>        -0.0136
     16 C16         3.0399   -2.4133   -0.5660 C.ar      1 <1>        -0.0744
     17 C17         4.1201   -2.9733   -1.1783 C.ar      1 <1>        -0.0674
     18 C18         5.3767   -2.3754   -1.0964 C.ar      1 <1>         0.0045
     19 Cl19        6.7302   -3.1185   -1.8897 Cl        1 <1>        -0.1272
     20 C20         5.5588   -1.2165   -0.4034 C.ar      1 <1>        -0.0184
     21 C21         4.4667   -0.6102    0.2405 C.ar      1 <1>        -0.0126
     22 N22         4.6174    0.5281    0.9272 N.ar      1 <1>        -0.3928
     23 C23         3.6066    1.1063    1.5336 C.ar      1 <1>        -0.0318
     24 C24         2.3259    0.5733    1.4933 C.ar      1 <1>        -0.0374
     25 H25        -0.9622   -0.6748   -5.4499 H         1 <1>         0.0665
     26 H26        -2.7322   -0.4881   -5.4603 H         1 <1>         0.0451
     27 H27        -1.7043    0.8099   -4.8070 H         1 <1>         0.0451
     28 H28        -2.1178   -1.9701   -3.6217 H         1 <1>         0.0837
     29 H29        -0.9370   -0.7856   -3.0123 H         1 <1>         0.0837
     30 H30        -4.2358   -0.2459   -4.4014 H         1 <1>         0.0837
     31 H31        -4.4729   -1.6021   -3.2734 H         1 <1>         0.0837
     32 H32        -5.4398   -0.1094   -1.6021 H         1 <1>         0.0451
     33 H33        -5.0705    1.3136   -2.6055 H         1 <1>         0.0451
     34 H34        -6.2926    0.1372   -3.1448 H         1 <1>         0.0665
     35 H35        -3.7734   -0.3559   -0.8081 H         1 <1>         0.0871
     36 H36        -3.0153   -1.8599   -1.3838 H         1 <1>         0.0871
     37 H37        -0.7831   -0.7892   -1.2410 H         1 <1>         0.0582
     38 H38        -1.5414    0.7147   -0.6653 H         1 <1>         0.0582
     39 H39        -2.4440   -0.4937    1.3029 H         1 <1>         0.0706
     40 H40        -1.6858   -1.9977    0.7271 H         1 <1>         0.0634
     41 H41         0.6071   -0.6543    3.3776 H         1 <1>         0.0461
     42 H42        -1.1611   -0.4507    3.3968 H         1 <1>         0.0461
     43 H43        -0.4508   -2.0213    2.9529 H         1 <1>         0.0389
     44 H44         0.6835   -1.9944    0.2639 H         1 <1>         0.2840
     45 H45         2.0711   -2.8855   -0.6355 H         1 <1>         0.1308
     46 H46         4.0017   -3.8920   -1.7337 H         1 <1>         0.1344
     47 H47         6.5387   -0.7659   -0.3489 H         1 <1>         0.1615
     48 H48         3.7759    2.0247    2.0763 H         1 <1>         0.2168
     49 H49         1.5144    1.0722    2.0019 H         1 <1>         0.1193
@<TRIPOS>BOND
     1    1    2 1
     2    1   25 1
     3    1   26 1
     4    1   27 1
     5    2    3 1
     6    2   28 1
     7    2   29 1
     8    3    4 1
     9    3    5 1
    10    3    7 1
    11    5    6 1
    12    5   30 1
    13    5   31 1
    14    6   32 1
    15    6   33 1
    16    6   34 1
    17    7    8 1
    18    7   35 1
    19    7   36 1
    20    8    9 1
    21    8   37 1
    22    8   38 1
    23    9   10 1
    24    9   39 1
    25    9   40 1
    26   10   11 1
    27   10   12 1
    28   10   13 1
    29   12   41 1
    30   12   42 1
    31   12   43 1
    32   13   14 1
    33   13   44 1
    34   14   24 ar
    35   14   15 ar
    36   15   21 ar
    37   15   16 ar
    38   16   17 ar
    39   16   45 1
    40   17   18 ar
    41   17   46 1
    42   18   19 1
    43   18   20 ar
    44   20   21 ar
    45   20   47 1
    46   21   22 ar
    47   22   23 ar
    48   23   24 ar
    49   23   48 1
    50   24   49 1
@<TRIPOS>Similarity
1.1337
@<TRIPOS>ShapeSim
0.8177
@<TRIPOS>PharmSim
0.3160
# END
# Name:		ClC1=CC2=NC=CC(NC(C)CCCN(CC)CC)=C2C=C1
# Created and modified by SHAFTS on Thu Mar 11 05:28:35 2021

# 

@<TRIPOS>MOLECULE
ClC1=CC2=NC=CC(NC(C)CCCN(CC)CC)=C2C=C1
   49    50     0
SMALL
USER_CHARGE


@<TRIPOS>ATOM
      1 C1         -1.8175   -0.2693   -4.9094 C.3       1 <1>        -0.0699
      2 C2         -1.8931   -0.9083   -3.5212 C.3       1 <1>        -0.1090
      3 N3         -2.9514   -0.2557   -2.7389 N.4       1 <1>         0.4010
      4 H4         -2.7938    0.7408   -2.7253 H         1 <1>         0.1568
      5 C5         -4.2569   -0.5366   -3.3512 C.3       1 <1>        -0.1090
      6 C6         -5.3430    0.2584   -2.6236 C.3       1 <1>        -0.0699
      7 C7         -2.9338   -0.7731   -1.3641 C.3       1 <1>        -0.1060
      8 C8         -1.6228   -0.3720   -0.6850 C.3       1 <1>        -0.0689
      9 C9         -1.6044   -0.9109    0.7468 C.3       1 <1>        -0.0475
     10 C10        -0.2933   -0.5099    1.4259 C.3       1 <1>        -0.0534
     11 H11        -0.1695    0.5714    1.3668 H         1 <1>         0.1104
     12 C12        -0.3270   -0.9399    2.8938 C.3       1 <1>        -0.0487
     13 N13         0.8278   -1.1675    0.7500 N.pl3     1 <1>        -0.4089
     14 C14         2.0950   -0.6078    0.8050 C.ar      1 <1>        -0.0567
     15 C15         3.1925   -1.2209    0.1553 C.ar      1 <1>        -0.0136
     16 C16         3.0399   -2.4133   -0.5660 C.ar      1 <1>        -0.0744
     17 C17         4.1201   -2.9733   -1.1783 C.ar      1 <1>        -0.0674
     18 C18         5.3767   -2.3754   -1.0964 C.ar      1 <1>         0.0045
     19 Cl19        6.7302   -3.1185   -1.8897 Cl        1 <1>        -0.1272
     20 C20         5.5588   -1.2165   -0.4034 C.ar      1 <1>        -0.0184
     21 C21         4.4667   -0.6102    0.2405 C.ar      1 <1>        -0.0126
     22 N22         4.6174    0.5281    0.9272 N.ar      1 <1>        -0.3928
     23 C23         3.6066    1.1063    1.5336 C.ar      1 <1>        -0.0318
     24 C24         2.3259    0.5733    1.4933 C.ar      1 <1>        -0.0374
     25 H25        -0.9622   -0.6748   -5.4499 H         1 <1>         0.0665
     26 H26        -2.7322   -0.4881   -5.4603 H         1 <1>         0.0451
     27 H27        -1.7043    0.8099   -4.8070 H         1 <1>         0.0451
     28 H28        -2.1178   -1.9701   -3.6217 H         1 <1>         0.0837
     29 H29        -0.9370   -0.7856   -3.0123 H         1 <1>         0.0837
     30 H30        -4.2358   -0.2459   -4.4014 H         1 <1>         0.0837
     31 H31        -4.4729   -1.6021   -3.2734 H         1 <1>         0.0837
     32 H32        -5.4398   -0.1094   -1.6021 H         1 <1>         0.0451
     33 H33        -5.0705    1.3136   -2.6055 H         1 <1>         0.0451
     34 H34        -6.2926    0.1372   -3.1448 H         1 <1>         0.0665
     35 H35        -3.7734   -0.3559   -0.8081 H         1 <1>         0.0871
     36 H36        -3.0153   -1.8599   -1.3838 H         1 <1>         0.0871
     37 H37        -0.7831   -0.7892   -1.2410 H         1 <1>         0.0582
     38 H38        -1.5414    0.7147   -0.6653 H         1 <1>         0.0582
     39 H39        -2.4440   -0.4937    1.3029 H         1 <1>         0.0706
     40 H40        -1.6858   -1.9977    0.7271 H         1 <1>         0.0634
     41 H41         0.6071   -0.6543    3.3776 H         1 <1>         0.0461
     42 H42        -1.1611   -0.4507    3.3968 H         1 <1>         0.0461
     43 H43        -0.4508   -2.0213    2.9529 H         1 <1>         0.0389
     44 H44         0.6835   -1.9944    0.2639 H         1 <1>         0.2840
     45 H45         2.0711   -2.8855   -0.6355 H         1 <1>         0.1308
     46 H46         4.0017   -3.8920   -1.7337 H         1 <1>         0.1344
     47 H47         6.5387   -0.7659   -0.3489 H         1 <1>         0.1615
     48 H48         3.7759    2.0247    2.0763 H         1 <1>         0.2168
     49 H49         1.5144    1.0722    2.0019 H         1 <1>         0.1193
@<TRIPOS>BOND
     1    1    2 1
     2    1   25 1
     3    1   26 1
     4    1   27 1
     5    2    3 1
     6    2   28 1
     7    2   29 1
     8    3    4 1
     9    3    5 1
    10    3    7 1
    11    5    6 1
    12    5   30 1
    13    5   31 1
    14    6   32 1
    15    6   33 1
    16    6   34 1
    17    7    8 1
    18    7   35 1
    19    7   36 1
    20    8    9 1
    21    8   37 1
    22    8   38 1
    23    9   10 1
    24    9   39 1
    25    9   40 1
    26   10   11 1
    27   10   12 1
    28   10   13 1
    29   12   41 1
    30   12   42 1
    31   12   43 1
    32   13   14 1
    33   13   44 1
    34   14   24 ar
    35   14   15 ar
    36   15   21 ar
    37   15   16 ar
    38   16   17 ar
    39   16   45 1
    40   17   18 ar
    41   17   46 1
    42   18   19 1
    43   18   20 ar
    44   20   21 ar
    45   20   47 1
    46   21   22 ar
    47   22   23 ar
    48   23   24 ar
    49   23   48 1
    50   24   49 1
@<TRIPOS>Similarity
1.1337
@<TRIPOS>ShapeSim
0.8177
@<TRIPOS>PharmSim
0.3160
# END
# Name:		CCN(CC)CCCC(C)NC1=C2C=CC(=CC2=NC=C1)Cl
# Created and modified by SHAFTS on Thu Mar 11 05:28:35 2021

# 

@<TRIPOS>MOLECULE
CCN(CC)CCCC(C)NC1=C2C=CC(=CC2=NC=C1)Cl
   49    50     0
SMALL
USER_CHARGE


@<TRIPOS>ATOM
      1 C1         -1.8175   -0.2693   -4.9094 C.3       1 <1>        -0.0699
      2 C2         -1.8931   -0.9083   -3.5212 C.3       1 <1>        -0.1090
      3 N3         -2.9514   -0.2557   -2.7389 N.4       1 <1>         0.4010
      4 H4         -2.7938    0.7408   -2.7253 H         1 <1>         0.1568
      5 C5         -4.2569   -0.5366   -3.3512 C.3       1 <1>        -0.1090
      6 C6         -5.3430    0.2584   -2.6236 C.3       1 <1>        -0.0699
      7 C7         -2.9338   -0.7731   -1.3641 C.3       1 <1>        -0.1060
      8 C8         -1.6228   -0.3720   -0.6850 C.3       1 <1>        -0.0689
      9 C9         -1.6044   -0.9109    0.7468 C.3       1 <1>        -0.0475
     10 C10        -0.2933   -0.5099    1.4259 C.3       1 <1>        -0.0534
     11 H11        -0.1695    0.5714    1.3668 H         1 <1>         0.1104
     12 C12        -0.3270   -0.9399    2.8938 C.3       1 <1>        -0.0487
     13 N13         0.8278   -1.1675    0.7500 N.pl3     1 <1>        -0.4089
     14 C14         2.0950   -0.6078    0.8050 C.ar      1 <1>        -0.0567
     15 C15         3.1925   -1.2209    0.1553 C.ar      1 <1>        -0.0136
     16 C16         3.0399   -2.4133   -0.5660 C.ar      1 <1>        -0.0744
     17 C17         4.1201   -2.9733   -1.1783 C.ar      1 <1>        -0.0674
     18 C18         5.3767   -2.3754   -1.0964 C.ar      1 <1>         0.0045
     19 Cl19        6.7302   -3.1185   -1.8897 Cl        1 <1>        -0.1272
     20 C20         5.5588   -1.2165   -0.4034 C.ar      1 <1>        -0.0184
     21 C21         4.4667   -0.6102    0.2405 C.ar      1 <1>        -0.0126
     22 N22         4.6174    0.5281    0.9272 N.ar      1 <1>        -0.3928
     23 C23         3.6066    1.1063    1.5336 C.ar      1 <1>        -0.0318
     24 C24         2.3259    0.5733    1.4933 C.ar      1 <1>        -0.0374
     25 H25        -0.9622   -0.6748   -5.4499 H         1 <1>         0.0665
     26 H26        -2.7322   -0.4881   -5.4603 H         1 <1>         0.0451
     27 H27        -1.7043    0.8099   -4.8070 H         1 <1>         0.0451
     28 H28        -2.1178   -1.9701   -3.6217 H         1 <1>         0.0837
     29 H29        -0.9370   -0.7856   -3.0123 H         1 <1>         0.0837
     30 H30        -4.2358   -0.2459   -4.4014 H         1 <1>         0.0837
     31 H31        -4.4729   -1.6021   -3.2734 H         1 <1>         0.0837
     32 H32        -5.4398   -0.1094   -1.6021 H         1 <1>         0.0451
     33 H33        -5.0705    1.3136   -2.6055 H         1 <1>         0.0451
     34 H34        -6.2926    0.1372   -3.1448 H         1 <1>         0.0665
     35 H35        -3.7734   -0.3559   -0.8081 H         1 <1>         0.0871
     36 H36        -3.0153   -1.8599   -1.3838 H         1 <1>         0.0871
     37 H37        -0.7831   -0.7892   -1.2410 H         1 <1>         0.0582
     38 H38        -1.5414    0.7147   -0.6653 H         1 <1>         0.0582
     39 H39        -2.4440   -0.4937    1.3029 H         1 <1>         0.0706
     40 H40        -1.6858   -1.9977    0.7271 H         1 <1>         0.0634
     41 H41         0.6071   -0.6543    3.3776 H         1 <1>         0.0461
     42 H42        -1.1611   -0.4507    3.3968 H         1 <1>         0.0461
     43 H43        -0.4508   -2.0213    2.9529 H         1 <1>         0.0389
     44 H44         0.6835   -1.9944    0.2639 H         1 <1>         0.2840
     45 H45         2.0711   -2.8855   -0.6355 H         1 <1>         0.1308
     46 H46         4.0017   -3.8920   -1.7337 H         1 <1>         0.1344
     47 H47         6.5387   -0.7659   -0.3489 H         1 <1>         0.1615
     48 H48         3.7759    2.0247    2.0763 H         1 <1>         0.2168
     49 H49         1.5144    1.0722    2.0019 H         1 <1>         0.1193
@<TRIPOS>BOND
     1    1    2 1
     2    1   25 1
     3    1   26 1
     4    1   27 1
     5    2    3 1
     6    2   28 1
     7    2   29 1
     8    3    4 1
     9    3    5 1
    10    3    7 1
    11    5    6 1
    12    5   30 1
    13    5   31 1
    14    6   32 1
    15    6   33 1
    16    6   34 1
    17    7    8 1
    18    7   35 1
    19    7   36 1
    20    8    9 1
    21    8   37 1
    22    8   38 1
    23    9   10 1
    24    9   39 1
    25    9   40 1
    26   10   11 1
    27   10   12 1
    28   10   13 1
    29   12   41 1
    30   12   42 1
    31   12   43 1
    32   13   14 1
    33   13   44 1
    34   14   24 ar
    35   14   15 ar
    36   15   21 ar
    37   15   16 ar
    38   16   17 ar
    39   16   45 1
    40   17   18 ar
    41   17   46 1
    42   18   19 1
    43   18   20 ar
    44   20   21 ar
    45   20   47 1
    46   21   22 ar
    47   22   23 ar
    48   23   24 ar
    49   23   48 1
    50   24   49 1
@<TRIPOS>Similarity
1.1337
@<TRIPOS>ShapeSim
0.8177
@<TRIPOS>PharmSim
0.3160
# END
# Name:		COC1=C(C=C2C(=C1)C(=NC=N2)N3C(=NC(=N3)C4=CC=CC=N4)N)OC
# Created and modified by SHAFTS on Thu Mar 11 05:28:35 2021

# 

@<TRIPOS>MOLECULE
COC1=C(C=C2C(=C1)C(=NC=N2)N3C(=NC(=N3)C4=CC=CC=N4)N)OC
   41    44     0
SMALL
USER_CHARGE


@<TRIPOS>ATOM
      1 C1          7.0088   -3.5824   -0.9543 C.3       1 <1>         0.0325
      2 O2          5.9000   -3.0966   -1.7136 O.3       1 <1>        -0.3921
      3 C3          5.0063   -2.3065   -1.0636 C.ar      1 <1>         0.0634
      4 C4          3.8948   -1.8050   -1.7558 C.ar      1 <1>         0.0558
      5 O5          3.7245   -2.1149   -3.0687 O.3       1 <1>        -0.4013
      6 C6          2.5729   -1.5737   -3.7190 C.3       1 <1>         0.0285
      7 C7          2.9809   -1.0088   -1.1259 C.ar      1 <1>        -0.0146
      8 C8          3.1580   -0.6911    0.2268 C.ar      1 <1>         0.0455
      9 C9          4.2816   -1.1976    0.9283 C.ar      1 <1>         0.0016
     10 C10         5.1995   -2.0158    0.2581 C.ar      1 <1>         0.0009
     11 N11         4.4290   -0.8797    2.2229 N.ar      1 <1>        -0.3570
     12 C12         3.5484   -0.1152    2.8235 C.ar      1 <1>         0.0427
     13 N13         2.4856    0.3790    2.2083 N.ar      1 <1>        -0.3182
     14 C14         2.2455    0.1270    0.9299 C.ar      1 <1>         0.0996
     15 N15         1.1249    0.6526    0.2974 N.pl3     1 <1>        -0.1858
     16 N16         0.2135   -0.0417   -0.5147 N.2       1 <1>        -0.2498
     17 C17        -0.6904    0.8274   -0.9061 C.2       1 <1>         0.1199
     18 C18        -1.8489    0.5282   -1.7828 C.ar      1 <1>         0.0649
     19 C19        -2.7344    1.5464   -2.1290 C.ar      1 <1>        -0.0284
     20 C20        -3.8110    1.2520   -2.9480 C.ar      1 <1>        -0.0810
     21 C21        -3.9664   -0.0526   -3.3941 C.ar      1 <1>        -0.0693
     22 C22        -3.0491   -1.0141   -3.0112 C.ar      1 <1>        -0.0347
     23 N23        -2.0302   -0.7059   -2.2353 N.ar      1 <1>        -0.3665
     24 N24        -0.3982    2.0291   -0.3854 N.2       1 <1>        -0.2964
     25 C25         0.6890    1.9422    0.3470 C.2       1 <1>         0.0874
     26 N26         1.2889    2.9774    1.0375 N.pl3     1 <1>        -0.3303
     27 H27         7.6432   -4.1988   -1.5913 H         1 <1>         0.1285
     28 H28         7.5857   -2.7396   -0.5735 H         1 <1>         0.0923
     29 H29         6.6433   -4.1797   -0.1189 H         1 <1>         0.0923
     30 H30         2.5576   -1.8973   -4.7598 H         1 <1>         0.1277
     31 H31         1.6724   -1.9259   -3.2158 H         1 <1>         0.0987
     32 H32         2.6102   -0.4852   -3.6776 H         1 <1>         0.0842
     33 H33         2.1280   -0.6266   -1.6672 H         1 <1>         0.1522
     34 H34         6.0594   -2.4085    0.7805 H         1 <1>         0.1531
     35 H35         3.6971    0.1216    3.8667 H         1 <1>         0.3025
     36 H36        -2.5833    2.5513   -1.7633 H         1 <1>         0.1518
     37 H37        -4.5144    2.0204   -3.2330 H         1 <1>         0.1372
     38 H38        -4.7961   -0.3148   -4.0339 H         1 <1>         0.1284
     39 H39        -3.1674   -2.0306   -3.3564 H         1 <1>         0.2010
     40 H40         0.9054    3.8678    1.0061 H         1 <1>         0.3053
     41 H41         2.0936    2.8137    1.5538 H         1 <1>         0.2974
@<TRIPOS>BOND
     1    1    2 1
     2    1   27 1
     3    1   28 1
     4    1   29 1
     5    2    3 1
     6    3   10 ar
     7    3    4 ar
     8    4    5 1
     9    4    7 ar
    10    5    6 1
    11    6   30 1
    12    6   31 1
    13    6   32 1
    14    7    8 ar
    15    7   33 1
    16    8   14 ar
    17    8    9 ar
    18    9   10 ar
    19    9   11 ar
    20   10   34 1
    21   11   12 ar
    22   12   13 ar
    23   12   35 1
    24   13   14 ar
    25   14   15 1
    26   15   25 1
    27   15   16 1
    28   16   17 2
    29   17   18 1
    30   17   24 1
    31   18   23 ar
    32   18   19 ar
    33   19   20 ar
    34   19   36 1
    35   20   21 ar
    36   20   37 1
    37   21   22 ar
    38   21   38 1
    39   22   23 ar
    40   22   39 1
    41   24   25 2
    42   25   26 1
    43   26   40 1
    44   26   41 1
@<TRIPOS>Similarity
1.1236
@<TRIPOS>ShapeSim
0.7360
@<TRIPOS>PharmSim
0.3876
# END
# Name:		C1CC1(S(=O)(=O)C2=CC=C(C=C2)Cl)S(=O)(=O)C3=CC=C(C=C3)Cl
# Created and modified by SHAFTS on Thu Mar 11 05:28:35 2021

# 

@<TRIPOS>MOLECULE
C1CC1(S(=O)(=O)C2=CC=C(C=C2)Cl)S(=O)(=O)C3=CC=C(C=C3)Cl
   35    37     0
SMALL
USER_CHARGE


@<TRIPOS>ATOM
      1 O1          0.7181    1.2671   -0.3736 O.2       1 <1>        -0.1338
      2 S2          0.4807   -0.1208   -0.5647 S.o2      1 <1>        -0.0784
      3 O3         -0.0712   -0.6092   -1.7797 O.2       1 <1>        -0.1338
      4 C4          2.0831   -0.8499   -0.4913 C.ar      1 <1>         0.2482
      5 C5          3.0839   -0.2459    0.2467 C.ar      1 <1>        -0.0082
      6 C6          4.3410   -0.8174    0.3048 C.ar      1 <1>        -0.0586
      7 C7          4.5977   -1.9942   -0.3760 C.ar      1 <1>        -0.0024
      8 Cl8         6.1763   -2.7128   -0.3032 Cl        1 <1>        -0.1225
      9 C9          3.5958   -2.5982   -1.1145 C.ar      1 <1>        -0.0583
     10 C10         2.3375   -2.0287   -1.1671 C.ar      1 <1>        -0.0065
     11 C11        -0.3996   -0.8181    0.8598 C.3       1 <1>         0.3887
     12 S12        -2.1835   -0.4931    0.9128 S.o2      1 <1>        -0.0836
     13 O13        -2.9010   -1.6915    1.1743 O.2       1 <1>        -0.1334
     14 O14        -2.4523    0.6960    1.6429 O.2       1 <1>        -0.1334
     15 C15        -2.6060   -0.0877   -0.7491 C.ar      1 <1>         0.2424
     16 C16        -2.5573    1.2271   -1.1732 C.ar      1 <1>        -0.0133
     17 C17        -2.8886    1.5459   -2.4766 C.ar      1 <1>        -0.0589
     18 C18        -3.2691    0.5488   -3.3570 C.ar      1 <1>         0.0022
     19 Cl19       -3.6848    0.9482   -4.9944 Cl        1 <1>        -0.1196
     20 C20        -3.3177   -0.7670   -2.9320 C.ar      1 <1>        -0.0509
     21 C21        -2.9807   -1.0851   -1.6298 C.ar      1 <1>        -0.0054
     22 C22         0.0909   -2.1608    1.4052 C.3       1 <1>         0.1363
     23 C23         0.3480   -0.8749    2.1935 C.3       1 <1>         0.1351
     24 H24         2.8834    0.6729    0.7779 H         1 <1>         0.1561
     25 H25         5.1229   -0.3452    0.8811 H         1 <1>         0.1427
     26 H26         3.7957   -3.5167   -1.6464 H         1 <1>         0.1427
     27 H27         1.5552   -2.5004   -1.7433 H         1 <1>         0.1637
     28 H28        -2.2605    2.0056   -0.4858 H         1 <1>         0.1597
     29 H29        -2.8508    2.5732   -2.8078 H         1 <1>         0.1427
     30 H30        -3.6150   -1.5457   -3.6186 H         1 <1>         0.1470
     31 H31        -3.0183   -2.1122   -1.2979 H         1 <1>         0.1628
     32 H32        -0.6585   -2.8493    1.7959 H         1 <1>         0.1133
     33 H33         0.9425   -2.6252    0.9081 H         1 <1>         0.1062
     34 H34         1.3688   -0.4933    2.2150 H         1 <1>         0.1058
     35 H35        -0.2321   -0.7175    3.1027 H         1 <1>         0.1058
@<TRIPOS>BOND
     1    1    2 2
     2    2    3 2
     3    2    4 1
     4    2   11 1
     5    4   10 ar
     6    4    5 ar
     7    5    6 ar
     8    5   24 1
     9    6    7 ar
    10    6   25 1
    11    7    8 1
    12    7    9 ar
    13    9   10 ar
    14    9   26 1
    15   10   27 1
    16   11   23 1
    17   11   12 1
    18   11   22 1
    19   12   13 2
    20   12   14 2
    21   12   15 1
    22   15   21 ar
    23   15   16 ar
    24   16   17 ar
    25   16   28 1
    26   17   18 ar
    27   17   29 1
    28   18   19 1
    29   18   20 ar
    30   20   21 ar
    31   20   30 1
    32   21   31 1
    33   22   23 1
    34   22   32 1
    35   22   33 1
    36   23   34 1
    37   23   35 1
@<TRIPOS>Similarity
1.1231
@<TRIPOS>ShapeSim
0.7327
@<TRIPOS>PharmSim
0.3905
# END
# Name:		CC(C)N1C2=NC=NC(=C2C(=N1)C3=CC4=C(N3)C=CC(=C4)O)N
# Created and modified by SHAFTS on Thu Mar 11 05:28:35 2021

# 

@<TRIPOS>MOLECULE
CC(C)N1C2=NC=NC(=C2C(=N1)C3=CC4=C(N3)C=CC(=C4)O)N
   39    42     0
SMALL
USER_CHARGE


@<TRIPOS>ATOM
      1 C1          3.8270    2.1115    3.2117 C.3       1 <1>        -0.0325
      2 C2          3.7482    0.5837    3.1952 C.3       1 <1>         0.0085
      3 C3          2.9006    0.1040    4.3752 C.3       1 <1>        -0.0325
      4 N4          3.1348    0.1398    1.9410 N.pl3     1 <1>        -0.2785
      5 N5          1.8520    0.4854    1.5026 N.2       1 <1>        -0.2782
      6 C6          1.6109   -0.0781    0.3405 C.2       1 <1>         0.0704
      7 C7          0.3693    0.0436   -0.4506 C.2       1 <1>        -0.0007
      8 C8         -0.3417    1.1871   -0.6201 C.2       1 <1>        -0.0438
      9 C9         -1.4866    0.8561   -1.4665 C.ar      1 <1>        -0.0534
     10 C10        -2.5555    1.5971   -1.9796 C.ar      1 <1>        -0.0540
     11 C11        -3.5001    0.9740   -2.7703 C.ar      1 <1>        -0.0360
     12 O12        -4.5418    1.6897   -3.2720 O.3       1 <1>        -0.4424
     13 C13        -3.3903   -0.3842   -3.0566 C.ar      1 <1>        -0.0589
     14 C14        -2.3415   -1.1246   -2.5567 C.ar      1 <1>        -0.0636
     15 C15        -1.3793   -0.5171   -1.7579 C.ar      1 <1>        -0.0576
     16 N16        -0.2407   -0.9834   -1.1334 N.pl3     1 <1>        -0.3521
     17 C17         2.8007   -0.8484   -0.0257 C.ar      1 <1>         0.0855
     18 C18         3.1648   -1.6539   -1.1164 C.ar      1 <1>         0.0049
     19 N19         2.2928   -1.8575   -2.1686 N.pl3     1 <1>        -0.3617
     20 N20         4.3701   -2.2155   -1.1119 N.ar      1 <1>        -0.3433
     21 C21         5.2080   -2.0240   -0.1087 C.ar      1 <1>         0.0422
     22 N22         4.9103   -1.2784    0.9328 N.ar      1 <1>        -0.3397
     23 C23         3.7279   -0.6691    1.0175 C.ar      1 <1>         0.0539
     24 H24         2.8230    2.5281    3.1309 H         1 <1>         0.0521
     25 H25         4.2835    2.4418    4.1448 H         1 <1>         0.0593
     26 H26         4.4309    2.4533    2.3710 H         1 <1>         0.0450
     27 H27         4.7522    0.1672    3.2759 H         1 <1>         0.1419
     28 H28         1.8966    0.5205    4.2944 H         1 <1>         0.0521
     29 H29         2.8444   -0.9845    4.3633 H         1 <1>         0.0450
     30 H30         3.3570    0.4341    5.3083 H         1 <1>         0.0593
     31 H31        -0.1066    2.1572   -0.2077 H         1 <1>         0.1533
     32 H32        -2.6418    2.6507   -1.7583 H         1 <1>         0.1380
     33 H33        -4.3664    2.0866   -4.1362 H         1 <1>         0.3531
     34 H34        -4.1347   -0.8619   -3.6763 H         1 <1>         0.1397
     35 H35        -2.2669   -2.1775   -2.7852 H         1 <1>         0.1324
     36 H36         0.0811   -1.8978   -1.1698 H         1 <1>         0.3329
     37 H37         1.4755   -1.3384   -2.2287 H         1 <1>         0.2810
     38 H38         2.4979   -2.5194   -2.8474 H         1 <1>         0.2810
     39 H39         6.1769   -2.4995   -0.1454 H         1 <1>         0.3176
@<TRIPOS>BOND
     1    1    2 1
     2    1   24 1
     3    1   25 1
     4    1   26 1
     5    2    3 1
     6    2    4 1
     7    2   27 1
     8    3   28 1
     9    3   29 1
    10    3   30 1
    11    4   23 1
    12    4    5 1
    13    5    6 2
    14    6    7 1
    15    6   17 1
    16    7   16 1
    17    7    8 2
    18    8    9 1
    19    8   31 1
    20    9   15 ar
    21    9   10 ar
    22   10   11 ar
    23   10   32 1
    24   11   12 1
    25   11   13 ar
    26   12   33 1
    27   13   14 ar
    28   13   34 1
    29   14   15 ar
    30   14   35 1
    31   15   16 1
    32   16   36 1
    33   17   23 ar
    34   17   18 ar
    35   18   19 1
    36   18   20 ar
    37   19   37 1
    38   19   38 1
    39   20   21 ar
    40   21   22 ar
    41   21   39 1
    42   22   23 ar
@<TRIPOS>Similarity
1.1174
@<TRIPOS>ShapeSim
0.7698
@<TRIPOS>PharmSim
0.3475
# END
# Name:		OC1=CC(C=C(C2=NN(C(C)C)C3=C2C(N)=NC=N3)N4)=C4C=C1
# Created and modified by SHAFTS on Thu Mar 11 05:28:35 2021

# 

@<TRIPOS>MOLECULE
OC1=CC(C=C(C2=NN(C(C)C)C3=C2C(N)=NC=N3)N4)=C4C=C1
   39    42     0
SMALL
USER_CHARGE


@<TRIPOS>ATOM
      1 C1          3.8270    2.1115    3.2117 C.3       1 <1>        -0.0325
      2 C2          3.7482    0.5837    3.1952 C.3       1 <1>         0.0085
      3 C3          2.9006    0.1040    4.3752 C.3       1 <1>        -0.0325
      4 N4          3.1348    0.1398    1.9410 N.pl3     1 <1>        -0.2785
      5 N5          1.8520    0.4854    1.5026 N.2       1 <1>        -0.2782
      6 C6          1.6109   -0.0781    0.3405 C.2       1 <1>         0.0704
      7 C7          0.3693    0.0436   -0.4506 C.2       1 <1>        -0.0007
      8 C8         -0.3417    1.1871   -0.6201 C.2       1 <1>        -0.0438
      9 C9         -1.4866    0.8561   -1.4665 C.ar      1 <1>        -0.0534
     10 C10        -2.5555    1.5971   -1.9796 C.ar      1 <1>        -0.0540
     11 C11        -3.5001    0.9740   -2.7703 C.ar      1 <1>        -0.0360
     12 O12        -4.5418    1.6897   -3.2720 O.3       1 <1>        -0.4424
     13 C13        -3.3903   -0.3842   -3.0566 C.ar      1 <1>        -0.0589
     14 C14        -2.3415   -1.1246   -2.5567 C.ar      1 <1>        -0.0636
     15 C15        -1.3793   -0.5171   -1.7579 C.ar      1 <1>        -0.0576
     16 N16        -0.2407   -0.9834   -1.1334 N.pl3     1 <1>        -0.3521
     17 C17         2.8007   -0.8484   -0.0257 C.ar      1 <1>         0.0855
     18 C18         3.1648   -1.6539   -1.1164 C.ar      1 <1>         0.0049
     19 N19         2.2928   -1.8575   -2.1686 N.pl3     1 <1>        -0.3617
     20 N20         4.3701   -2.2155   -1.1119 N.ar      1 <1>        -0.3433
     21 C21         5.2080   -2.0240   -0.1087 C.ar      1 <1>         0.0422
     22 N22         4.9103   -1.2784    0.9328 N.ar      1 <1>        -0.3397
     23 C23         3.7279   -0.6691    1.0175 C.ar      1 <1>         0.0539
     24 H24         2.8230    2.5281    3.1309 H         1 <1>         0.0521
     25 H25         4.2835    2.4418    4.1448 H         1 <1>         0.0593
     26 H26         4.4309    2.4533    2.3710 H         1 <1>         0.0450
     27 H27         4.7522    0.1672    3.2759 H         1 <1>         0.1419
     28 H28         1.8966    0.5205    4.2944 H         1 <1>         0.0521
     29 H29         2.8444   -0.9845    4.3633 H         1 <1>         0.0450
     30 H30         3.3570    0.4341    5.3083 H         1 <1>         0.0593
     31 H31        -0.1066    2.1572   -0.2077 H         1 <1>         0.1533
     32 H32        -2.6418    2.6507   -1.7583 H         1 <1>         0.1380
     33 H33        -4.3664    2.0866   -4.1362 H         1 <1>         0.3531
     34 H34        -4.1347   -0.8619   -3.6763 H         1 <1>         0.1397
     35 H35        -2.2669   -2.1775   -2.7852 H         1 <1>         0.1324
     36 H36         0.0811   -1.8978   -1.1698 H         1 <1>         0.3329
     37 H37         1.4755   -1.3384   -2.2287 H         1 <1>         0.2810
     38 H38         2.4979   -2.5194   -2.8474 H         1 <1>         0.2810
     39 H39         6.1769   -2.4995   -0.1454 H         1 <1>         0.3176
@<TRIPOS>BOND
     1    1    2 1
     2    1   24 1
     3    1   25 1
     4    1   26 1
     5    2    3 1
     6    2    4 1
     7    2   27 1
     8    3   28 1
     9    3   29 1
    10    3   30 1
    11    4   23 1
    12    4    5 1
    13    5    6 2
    14    6    7 1
    15    6   17 1
    16    7   16 1
    17    7    8 2
    18    8    9 1
    19    8   31 1
    20    9   15 ar
    21    9   10 ar
    22   10   11 ar
    23   10   32 1
    24   11   12 1
    25   11   13 ar
    26   12   33 1
    27   13   14 ar
    28   13   34 1
    29   14   15 ar
    30   14   35 1
    31   15   16 1
    32   16   36 1
    33   17   23 ar
    34   17   18 ar
    35   18   19 1
    36   18   20 ar
    37   19   37 1
    38   19   38 1
    39   20   21 ar
    40   21   22 ar
    41   21   39 1
    42   22   23 ar
@<TRIPOS>Similarity
1.1174
@<TRIPOS>ShapeSim
0.7698
@<TRIPOS>PharmSim
0.3475
# END
# Name:		C1=CC(=CC=C1/C=C/C2=CC(=CC(=C2)O)O)O
# Created and modified by SHAFTS on Thu Mar 11 05:28:35 2021

# 

@<TRIPOS>MOLECULE
C1=CC(=CC=C1/C=C/C2=CC(=CC(=C2)O)O)O
   29    30     0
SMALL
USER_CHARGE


@<TRIPOS>ATOM
      1 O1         -4.8768    0.2334   -3.3311 O.3       1 <1>        -0.4408
      2 C2         -3.6026    0.1767   -2.8632 C.ar      1 <1>        -0.0414
      3 C3         -3.1654    1.1087   -1.9307 C.ar      1 <1>        -0.0674
      4 C4         -1.8739    1.0551   -1.4532 C.ar      1 <1>        -0.0871
      5 C5         -1.0034    0.0608   -1.9088 C.ar      1 <1>        -0.0878
      6 C6          0.3784   -0.0011   -1.4010 C.2       1 <1>        -0.0876
      7 C7          1.2128   -0.9570   -1.8400 C.2       1 <1>        -0.0850
      8 C8          2.5950   -1.0189   -1.3320 C.ar      1 <1>        -0.0762
      9 C9          3.0375   -0.0877   -0.3895 C.ar      1 <1>        -0.0563
     10 C10         4.3368   -0.1504    0.0849 C.ar      1 <1>        -0.0312
     11 O11         4.7685    0.7550    1.0019 O.3       1 <1>        -0.4381
     12 C12         5.1987   -1.1364   -0.3739 C.ar      1 <1>        -0.0333
     13 C13         4.7639   -2.0638   -1.3101 C.ar      1 <1>        -0.0296
     14 O14         5.6125   -3.0273   -1.7554 O.3       1 <1>        -0.4377
     15 C15         3.4649   -2.0125   -1.7872 C.ar      1 <1>        -0.0542
     16 C16        -1.4480   -0.8749   -2.8473 C.ar      1 <1>        -0.0871
     17 C17        -2.7430   -0.8166   -3.3146 C.ar      1 <1>        -0.0674
     18 H18        -5.5104   -0.2779   -2.8095 H         1 <1>         0.3538
     19 H19        -3.8386    1.8768   -1.5797 H         1 <1>         0.1259
     20 H20        -1.5347    1.7804   -0.7285 H         1 <1>         0.1290
     21 H21         0.7200    0.7225   -0.6757 H         1 <1>         0.1299
     22 H22         0.8711   -1.6806   -2.5653 H         1 <1>         0.1274
     23 H23         2.3675    0.6800   -0.0319 H         1 <1>         0.1346
     24 H24         4.6297    0.4826    1.9193 H         1 <1>         0.3544
     25 H25         6.2115   -1.1820   -0.0014 H         1 <1>         0.1367
     26 H26         5.5937   -3.8404   -1.2323 H         1 <1>         0.3544
     27 H27         3.1274   -2.7347   -2.5158 H         1 <1>         0.1372
     28 H28        -0.7790   -1.6449   -3.2022 H         1 <1>         0.1290
     29 H29        -3.0875   -1.5393   -4.0395 H         1 <1>         0.1259
@<TRIPOS>BOND
     1    1    2 1
     2    1   18 1
     3    2   17 ar
     4    2    3 ar
     5    3    4 ar
     6    3   19 1
     7    4    5 ar
     8    4   20 1
     9    5    6 1
    10    5   16 ar
    11    6    7 2
    12    6   21 1
    13    7    8 1
    14    7   22 1
    15    8   15 ar
    16    8    9 ar
    17    9   10 ar
    18    9   23 1
    19   10   11 1
    20   10   12 ar
    21   11   24 1
    22   12   13 ar
    23   12   25 1
    24   13   14 1
    25   13   15 ar
    26   14   26 1
    27   15   27 1
    28   16   17 ar
    29   16   28 1
    30   17   29 1
@<TRIPOS>Similarity
1.1162
@<TRIPOS>ShapeSim
0.6597
@<TRIPOS>PharmSim
0.4565
# END
# Name:		C1=CC(=CC=C1C=CC2=CC(=CC(=C2)O)O)O
# Created and modified by SHAFTS on Thu Mar 11 05:28:35 2021

# 

@<TRIPOS>MOLECULE
C1=CC(=CC=C1C=CC2=CC(=CC(=C2)O)O)O
   29    30     0
SMALL
USER_CHARGE


@<TRIPOS>ATOM
      1 O1         -4.8768    0.2334   -3.3311 O.3       1 <1>        -0.4408
      2 C2         -3.6026    0.1767   -2.8632 C.ar      1 <1>        -0.0414
      3 C3         -3.1654    1.1087   -1.9307 C.ar      1 <1>        -0.0674
      4 C4         -1.8739    1.0551   -1.4532 C.ar      1 <1>        -0.0871
      5 C5         -1.0034    0.0608   -1.9088 C.ar      1 <1>        -0.0878
      6 C6          0.3784   -0.0011   -1.4010 C.2       1 <1>        -0.0876
      7 C7          1.2128   -0.9570   -1.8400 C.2       1 <1>        -0.0850
      8 C8          2.5950   -1.0189   -1.3320 C.ar      1 <1>        -0.0762
      9 C9          3.0375   -0.0877   -0.3895 C.ar      1 <1>        -0.0563
     10 C10         4.3368   -0.1504    0.0849 C.ar      1 <1>        -0.0312
     11 O11         4.7685    0.7550    1.0019 O.3       1 <1>        -0.4381
     12 C12         5.1987   -1.1364   -0.3739 C.ar      1 <1>        -0.0333
     13 C13         4.7639   -2.0638   -1.3101 C.ar      1 <1>        -0.0296
     14 O14         5.6125   -3.0273   -1.7554 O.3       1 <1>        -0.4377
     15 C15         3.4649   -2.0125   -1.7872 C.ar      1 <1>        -0.0542
     16 C16        -1.4480   -0.8749   -2.8473 C.ar      1 <1>        -0.0871
     17 C17        -2.7430   -0.8166   -3.3146 C.ar      1 <1>        -0.0674
     18 H18        -5.5104   -0.2779   -2.8095 H         1 <1>         0.3538
     19 H19        -3.8386    1.8768   -1.5797 H         1 <1>         0.1259
     20 H20        -1.5347    1.7804   -0.7285 H         1 <1>         0.1290
     21 H21         0.7200    0.7225   -0.6757 H         1 <1>         0.1299
     22 H22         0.8711   -1.6806   -2.5653 H         1 <1>         0.1274
     23 H23         2.3675    0.6800   -0.0319 H         1 <1>         0.1346
     24 H24         4.6297    0.4826    1.9193 H         1 <1>         0.3544
     25 H25         6.2115   -1.1820   -0.0014 H         1 <1>         0.1367
     26 H26         5.5937   -3.8404   -1.2323 H         1 <1>         0.3544
     27 H27         3.1274   -2.7347   -2.5158 H         1 <1>         0.1372
     28 H28        -0.7790   -1.6449   -3.2022 H         1 <1>         0.1290
     29 H29        -3.0875   -1.5393   -4.0395 H         1 <1>         0.1259
@<TRIPOS>BOND
     1    1    2 1
     2    1   18 1
     3    2   17 ar
     4    2    3 ar
     5    3    4 ar
     6    3   19 1
     7    4    5 ar
     8    4   20 1
     9    5    6 1
    10    5   16 ar
    11    6    7 2
    12    6   21 1
    13    7    8 1
    14    7   22 1
    15    8   15 ar
    16    8    9 ar
    17    9   10 ar
    18    9   23 1
    19   10   11 1
    20   10   12 ar
    21   11   24 1
    22   12   13 ar
    23   12   25 1
    24   13   14 1
    25   13   15 ar
    26   14   26 1
    27   15   27 1
    28   16   17 ar
    29   16   28 1
    30   17   29 1
@<TRIPOS>Similarity
1.1162
@<TRIPOS>ShapeSim
0.6597
@<TRIPOS>PharmSim
0.4565
# END
# Name:		OC1=CC=C(/C=C/C2=CC(O)=CC(O)=C2)C=C1
# Created and modified by SHAFTS on Thu Mar 11 05:28:35 2021

# 

@<TRIPOS>MOLECULE
OC1=CC=C(/C=C/C2=CC(O)=CC(O)=C2)C=C1
   29    30     0
SMALL
USER_CHARGE


@<TRIPOS>ATOM
      1 O1         -4.8768    0.2334   -3.3311 O.3       1 <1>        -0.4408
      2 C2         -3.6026    0.1767   -2.8632 C.ar      1 <1>        -0.0414
      3 C3         -3.1654    1.1087   -1.9307 C.ar      1 <1>        -0.0674
      4 C4         -1.8739    1.0551   -1.4532 C.ar      1 <1>        -0.0871
      5 C5         -1.0034    0.0608   -1.9088 C.ar      1 <1>        -0.0878
      6 C6          0.3784   -0.0011   -1.4010 C.2       1 <1>        -0.0876
      7 C7          1.2128   -0.9570   -1.8400 C.2       1 <1>        -0.0850
      8 C8          2.5950   -1.0189   -1.3320 C.ar      1 <1>        -0.0762
      9 C9          3.0375   -0.0877   -0.3895 C.ar      1 <1>        -0.0563
     10 C10         4.3368   -0.1504    0.0849 C.ar      1 <1>        -0.0312
     11 O11         4.7685    0.7550    1.0019 O.3       1 <1>        -0.4381
     12 C12         5.1987   -1.1364   -0.3739 C.ar      1 <1>        -0.0333
     13 C13         4.7639   -2.0638   -1.3101 C.ar      1 <1>        -0.0296
     14 O14         5.6125   -3.0273   -1.7554 O.3       1 <1>        -0.4377
     15 C15         3.4649   -2.0125   -1.7872 C.ar      1 <1>        -0.0542
     16 C16        -1.4480   -0.8749   -2.8473 C.ar      1 <1>        -0.0871
     17 C17        -2.7430   -0.8166   -3.3146 C.ar      1 <1>        -0.0674
     18 H18        -5.5104   -0.2779   -2.8095 H         1 <1>         0.3538
     19 H19        -3.8386    1.8768   -1.5797 H         1 <1>         0.1259
     20 H20        -1.5347    1.7804   -0.7285 H         1 <1>         0.1290
     21 H21         0.7200    0.7225   -0.6757 H         1 <1>         0.1299
     22 H22         0.8711   -1.6806   -2.5653 H         1 <1>         0.1274
     23 H23         2.3675    0.6800   -0.0319 H         1 <1>         0.1346
     24 H24         4.6297    0.4826    1.9193 H         1 <1>         0.3544
     25 H25         6.2115   -1.1820   -0.0014 H         1 <1>         0.1367
     26 H26         5.5937   -3.8404   -1.2323 H         1 <1>         0.3544
     27 H27         3.1274   -2.7347   -2.5158 H         1 <1>         0.1372
     28 H28        -0.7790   -1.6449   -3.2022 H         1 <1>         0.1290
     29 H29        -3.0875   -1.5393   -4.0395 H         1 <1>         0.1259
@<TRIPOS>BOND
     1    1    2 1
     2    1   18 1
     3    2   17 ar
     4    2    3 ar
     5    3    4 ar
     6    3   19 1
     7    4    5 ar
     8    4   20 1
     9    5    6 1
    10    5   16 ar
    11    6    7 2
    12    6   21 1
    13    7    8 1
    14    7   22 1
    15    8   15 ar
    16    8    9 ar
    17    9   10 ar
    18    9   23 1
    19   10   11 1
    20   10   12 ar
    21   11   24 1
    22   12   13 ar
    23   12   25 1
    24   13   14 1
    25   13   15 ar
    26   14   26 1
    27   15   27 1
    28   16   17 ar
    29   16   28 1
    30   17   29 1
@<TRIPOS>Similarity
1.1162
@<TRIPOS>ShapeSim
0.6597
@<TRIPOS>PharmSim
0.4565
# END
# Name:		OC1=CC=C(/C=C/C2=CC(O)=CC(O)=C2)C=C1
# Created and modified by SHAFTS on Thu Mar 11 05:28:35 2021

# 

@<TRIPOS>MOLECULE
OC1=CC=C(/C=C/C2=CC(O)=CC(O)=C2)C=C1
   29    30     0
SMALL
USER_CHARGE


@<TRIPOS>ATOM
      1 O1         -4.8768    0.2334   -3.3311 O.3       1 <1>        -0.4408
      2 C2         -3.6026    0.1767   -2.8632 C.ar      1 <1>        -0.0414
      3 C3         -3.1654    1.1087   -1.9307 C.ar      1 <1>        -0.0674
      4 C4         -1.8739    1.0551   -1.4532 C.ar      1 <1>        -0.0871
      5 C5         -1.0034    0.0608   -1.9088 C.ar      1 <1>        -0.0878
      6 C6          0.3784   -0.0011   -1.4010 C.2       1 <1>        -0.0876
      7 C7          1.2128   -0.9570   -1.8400 C.2       1 <1>        -0.0850
      8 C8          2.5950   -1.0189   -1.3320 C.ar      1 <1>        -0.0762
      9 C9          3.0375   -0.0877   -0.3895 C.ar      1 <1>        -0.0563
     10 C10         4.3368   -0.1504    0.0849 C.ar      1 <1>        -0.0312
     11 O11         4.7685    0.7550    1.0019 O.3       1 <1>        -0.4381
     12 C12         5.1987   -1.1364   -0.3739 C.ar      1 <1>        -0.0333
     13 C13         4.7639   -2.0638   -1.3101 C.ar      1 <1>        -0.0296
     14 O14         5.6125   -3.0273   -1.7554 O.3       1 <1>        -0.4377
     15 C15         3.4649   -2.0125   -1.7872 C.ar      1 <1>        -0.0542
     16 C16        -1.4480   -0.8749   -2.8473 C.ar      1 <1>        -0.0871
     17 C17        -2.7430   -0.8166   -3.3146 C.ar      1 <1>        -0.0674
     18 H18        -5.5104   -0.2779   -2.8095 H         1 <1>         0.3538
     19 H19        -3.8386    1.8768   -1.5797 H         1 <1>         0.1259
     20 H20        -1.5347    1.7804   -0.7285 H         1 <1>         0.1290
     21 H21         0.7200    0.7225   -0.6757 H         1 <1>         0.1299
     22 H22         0.8711   -1.6806   -2.5653 H         1 <1>         0.1274
     23 H23         2.3675    0.6800   -0.0319 H         1 <1>         0.1346
     24 H24         4.6297    0.4826    1.9193 H         1 <1>         0.3544
     25 H25         6.2115   -1.1820   -0.0014 H         1 <1>         0.1367
     26 H26         5.5937   -3.8404   -1.2323 H         1 <1>         0.3544
     27 H27         3.1274   -2.7347   -2.5158 H         1 <1>         0.1372
     28 H28        -0.7790   -1.6449   -3.2022 H         1 <1>         0.1290
     29 H29        -3.0875   -1.5393   -4.0395 H         1 <1>         0.1259
@<TRIPOS>BOND
     1    1    2 1
     2    1   18 1
     3    2   17 ar
     4    2    3 ar
     5    3    4 ar
     6    3   19 1
     7    4    5 ar
     8    4   20 1
     9    5    6 1
    10    5   16 ar
    11    6    7 2
    12    6   21 1
    13    7    8 1
    14    7   22 1
    15    8   15 ar
    16    8    9 ar
    17    9   10 ar
    18    9   23 1
    19   10   11 1
    20   10   12 ar
    21   11   24 1
    22   12   13 ar
    23   12   25 1
    24   13   14 1
    25   13   15 ar
    26   14   26 1
    27   15   27 1
    28   16   17 ar
    29   16   28 1
    30   17   29 1
@<TRIPOS>Similarity
1.1162
@<TRIPOS>ShapeSim
0.6597
@<TRIPOS>PharmSim
0.4565
# END
# Name:		C1=CC(=CC=C1C=CC2=CC(=CC(=C2)O)O)O
# Created and modified by SHAFTS on Thu Mar 11 05:28:35 2021

# 

@<TRIPOS>MOLECULE
C1=CC(=CC=C1C=CC2=CC(=CC(=C2)O)O)O
   29    30     0
SMALL
USER_CHARGE


@<TRIPOS>ATOM
      1 O1         -4.8768    0.2334   -3.3311 O.3       1 <1>        -0.4408
      2 C2         -3.6026    0.1767   -2.8632 C.ar      1 <1>        -0.0414
      3 C3         -3.1654    1.1087   -1.9307 C.ar      1 <1>        -0.0674
      4 C4         -1.8739    1.0551   -1.4532 C.ar      1 <1>        -0.0871
      5 C5         -1.0034    0.0608   -1.9088 C.ar      1 <1>        -0.0878
      6 C6          0.3784   -0.0011   -1.4010 C.2       1 <1>        -0.0876
      7 C7          1.2128   -0.9570   -1.8400 C.2       1 <1>        -0.0850
      8 C8          2.5950   -1.0189   -1.3320 C.ar      1 <1>        -0.0762
      9 C9          3.0375   -0.0877   -0.3895 C.ar      1 <1>        -0.0563
     10 C10         4.3368   -0.1504    0.0849 C.ar      1 <1>        -0.0312
     11 O11         4.7685    0.7550    1.0019 O.3       1 <1>        -0.4381
     12 C12         5.1987   -1.1364   -0.3739 C.ar      1 <1>        -0.0333
     13 C13         4.7639   -2.0638   -1.3101 C.ar      1 <1>        -0.0296
     14 O14         5.6125   -3.0273   -1.7554 O.3       1 <1>        -0.4377
     15 C15         3.4649   -2.0125   -1.7872 C.ar      1 <1>        -0.0542
     16 C16        -1.4480   -0.8749   -2.8473 C.ar      1 <1>        -0.0871
     17 C17        -2.7430   -0.8166   -3.3146 C.ar      1 <1>        -0.0674
     18 H18        -5.5104   -0.2779   -2.8095 H         1 <1>         0.3538
     19 H19        -3.8386    1.8768   -1.5797 H         1 <1>         0.1259
     20 H20        -1.5347    1.7804   -0.7285 H         1 <1>         0.1290
     21 H21         0.7200    0.7225   -0.6757 H         1 <1>         0.1299
     22 H22         0.8711   -1.6806   -2.5653 H         1 <1>         0.1274
     23 H23         2.3675    0.6800   -0.0319 H         1 <1>         0.1346
     24 H24         4.6297    0.4826    1.9193 H         1 <1>         0.3544
     25 H25         6.2115   -1.1820   -0.0014 H         1 <1>         0.1367
     26 H26         5.5937   -3.8404   -1.2323 H         1 <1>         0.3544
     27 H27         3.1274   -2.7347   -2.5158 H         1 <1>         0.1372
     28 H28        -0.7790   -1.6449   -3.2022 H         1 <1>         0.1290
     29 H29        -3.0875   -1.5393   -4.0395 H         1 <1>         0.1259
@<TRIPOS>BOND
     1    1    2 1
     2    1   18 1
     3    2   17 ar
     4    2    3 ar
     5    3    4 ar
     6    3   19 1
     7    4    5 ar
     8    4   20 1
     9    5    6 1
    10    5   16 ar
    11    6    7 2
    12    6   21 1
    13    7    8 1
    14    7   22 1
    15    8   15 ar
    16    8    9 ar
    17    9   10 ar
    18    9   23 1
    19   10   11 1
    20   10   12 ar
    21   11   24 1
    22   12   13 ar
    23   12   25 1
    24   13   14 1
    25   13   15 ar
    26   14   26 1
    27   15   27 1
    28   16   17 ar
    29   16   28 1
    30   17   29 1
@<TRIPOS>Similarity
1.1162
@<TRIPOS>ShapeSim
0.6597
@<TRIPOS>PharmSim
0.4565
# END
# Name:		C1=CC(=CC=C1C=CC2=CC(=CC(=C2)O)O)O
# Created and modified by SHAFTS on Thu Mar 11 05:28:35 2021

# 

@<TRIPOS>MOLECULE
C1=CC(=CC=C1C=CC2=CC(=CC(=C2)O)O)O
   29    30     0
SMALL
USER_CHARGE


@<TRIPOS>ATOM
      1 O1         -4.8768    0.2334   -3.3311 O.3       1 <1>        -0.4408
      2 C2         -3.6026    0.1767   -2.8632 C.ar      1 <1>        -0.0414
      3 C3         -3.1654    1.1087   -1.9307 C.ar      1 <1>        -0.0674
      4 C4         -1.8739    1.0551   -1.4532 C.ar      1 <1>        -0.0871
      5 C5         -1.0034    0.0608   -1.9088 C.ar      1 <1>        -0.0878
      6 C6          0.3784   -0.0011   -1.4010 C.2       1 <1>        -0.0876
      7 C7          1.2128   -0.9570   -1.8400 C.2       1 <1>        -0.0850
      8 C8          2.5950   -1.0189   -1.3320 C.ar      1 <1>        -0.0762
      9 C9          3.0375   -0.0877   -0.3895 C.ar      1 <1>        -0.0563
     10 C10         4.3368   -0.1504    0.0849 C.ar      1 <1>        -0.0312
     11 O11         4.7685    0.7550    1.0019 O.3       1 <1>        -0.4381
     12 C12         5.1987   -1.1364   -0.3739 C.ar      1 <1>        -0.0333
     13 C13         4.7639   -2.0638   -1.3101 C.ar      1 <1>        -0.0296
     14 O14         5.6125   -3.0273   -1.7554 O.3       1 <1>        -0.4377
     15 C15         3.4649   -2.0125   -1.7872 C.ar      1 <1>        -0.0542
     16 C16        -1.4480   -0.8749   -2.8473 C.ar      1 <1>        -0.0871
     17 C17        -2.7430   -0.8166   -3.3146 C.ar      1 <1>        -0.0674
     18 H18        -5.5104   -0.2779   -2.8095 H         1 <1>         0.3538
     19 H19        -3.8386    1.8768   -1.5797 H         1 <1>         0.1259
     20 H20        -1.5347    1.7804   -0.7285 H         1 <1>         0.1290
     21 H21         0.7200    0.7225   -0.6757 H         1 <1>         0.1299
     22 H22         0.8711   -1.6806   -2.5653 H         1 <1>         0.1274
     23 H23         2.3675    0.6800   -0.0319 H         1 <1>         0.1346
     24 H24         4.6297    0.4826    1.9193 H         1 <1>         0.3544
     25 H25         6.2115   -1.1820   -0.0014 H         1 <1>         0.1367
     26 H26         5.5937   -3.8404   -1.2323 H         1 <1>         0.3544
     27 H27         3.1274   -2.7347   -2.5158 H         1 <1>         0.1372
     28 H28        -0.7790   -1.6449   -3.2022 H         1 <1>         0.1290
     29 H29        -3.0875   -1.5393   -4.0395 H         1 <1>         0.1259
@<TRIPOS>BOND
     1    1    2 1
     2    1   18 1
     3    2   17 ar
     4    2    3 ar
     5    3    4 ar
     6    3   19 1
     7    4    5 ar
     8    4   20 1
     9    5    6 1
    10    5   16 ar
    11    6    7 2
    12    6   21 1
    13    7    8 1
    14    7   22 1
    15    8   15 ar
    16    8    9 ar
    17    9   10 ar
    18    9   23 1
    19   10   11 1
    20   10   12 ar
    21   11   24 1
    22   12   13 ar
    23   12   25 1
    24   13   14 1
    25   13   15 ar
    26   14   26 1
    27   15   27 1
    28   16   17 ar
    29   16   28 1
    30   17   29 1
@<TRIPOS>Similarity
1.1162
@<TRIPOS>ShapeSim
0.6597
@<TRIPOS>PharmSim
0.4565
# END
# Name:		C1=CC(=CC=C1C=CC2=CC(=CC(=C2)O)O)O
# Created and modified by SHAFTS on Thu Mar 11 05:28:35 2021

# 

@<TRIPOS>MOLECULE
C1=CC(=CC=C1C=CC2=CC(=CC(=C2)O)O)O
   29    30     0
SMALL
USER_CHARGE


@<TRIPOS>ATOM
      1 O1         -4.8768    0.2334   -3.3311 O.3       1 <1>        -0.4408
      2 C2         -3.6026    0.1767   -2.8632 C.ar      1 <1>        -0.0414
      3 C3         -3.1654    1.1087   -1.9307 C.ar      1 <1>        -0.0674
      4 C4         -1.8739    1.0551   -1.4532 C.ar      1 <1>        -0.0871
      5 C5         -1.0034    0.0608   -1.9088 C.ar      1 <1>        -0.0878
      6 C6          0.3784   -0.0011   -1.4010 C.2       1 <1>        -0.0876
      7 C7          1.2128   -0.9570   -1.8400 C.2       1 <1>        -0.0850
      8 C8          2.5950   -1.0189   -1.3320 C.ar      1 <1>        -0.0762
      9 C9          3.0375   -0.0877   -0.3895 C.ar      1 <1>        -0.0563
     10 C10         4.3368   -0.1504    0.0849 C.ar      1 <1>        -0.0312
     11 O11         4.7685    0.7550    1.0019 O.3       1 <1>        -0.4381
     12 C12         5.1987   -1.1364   -0.3739 C.ar      1 <1>        -0.0333
     13 C13         4.7639   -2.0638   -1.3101 C.ar      1 <1>        -0.0296
     14 O14         5.6125   -3.0273   -1.7554 O.3       1 <1>        -0.4377
     15 C15         3.4649   -2.0125   -1.7872 C.ar      1 <1>        -0.0542
     16 C16        -1.4480   -0.8749   -2.8473 C.ar      1 <1>        -0.0871
     17 C17        -2.7430   -0.8166   -3.3146 C.ar      1 <1>        -0.0674
     18 H18        -5.5104   -0.2779   -2.8095 H         1 <1>         0.3538
     19 H19        -3.8386    1.8768   -1.5797 H         1 <1>         0.1259
     20 H20        -1.5347    1.7804   -0.7285 H         1 <1>         0.1290
     21 H21         0.7200    0.7225   -0.6757 H         1 <1>         0.1299
     22 H22         0.8711   -1.6806   -2.5653 H         1 <1>         0.1274
     23 H23         2.3675    0.6800   -0.0319 H         1 <1>         0.1346
     24 H24         4.6297    0.4826    1.9193 H         1 <1>         0.3544
     25 H25         6.2115   -1.1820   -0.0014 H         1 <1>         0.1367
     26 H26         5.5937   -3.8404   -1.2323 H         1 <1>         0.3544
     27 H27         3.1274   -2.7347   -2.5158 H         1 <1>         0.1372
     28 H28        -0.7790   -1.6449   -3.2022 H         1 <1>         0.1290
     29 H29        -3.0875   -1.5393   -4.0395 H         1 <1>         0.1259
@<TRIPOS>BOND
     1    1    2 1
     2    1   18 1
     3    2   17 ar
     4    2    3 ar
     5    3    4 ar
     6    3   19 1
     7    4    5 ar
     8    4   20 1
     9    5    6 1
    10    5   16 ar
    11    6    7 2
    12    6   21 1
    13    7    8 1
    14    7   22 1
    15    8   15 ar
    16    8    9 ar
    17    9   10 ar
    18    9   23 1
    19   10   11 1
    20   10   12 ar
    21   11   24 1
    22   12   13 ar
    23   12   25 1
    24   13   14 1
    25   13   15 ar
    26   14   26 1
    27   15   27 1
    28   16   17 ar
    29   16   28 1
    30   17   29 1
@<TRIPOS>Similarity
1.1162
@<TRIPOS>ShapeSim
0.6597
@<TRIPOS>PharmSim
0.4565
# END
# Name:		NC(CN1C2=CC=CC=C2C(O)(CC(C3=CC(C=CC=C4)=C4C=C3)=O)C1=O)=O
# Created and modified by SHAFTS on Thu Mar 11 05:28:35 2021

# 

@<TRIPOS>MOLECULE
NC(CN1C2=CC=CC=C2C(O)(CC(C3=CC(C=CC=C4)=C4C=C3)=O)C1=O)=O
   46    49     0
SMALL
USER_CHARGE


@<TRIPOS>ATOM
      1 N1          4.8886    4.0395   -1.3615 N.am      1 <1>        -0.3530
      2 C2          4.2085    2.9062   -1.0974 C.2       1 <1>         0.0812
      3 O3          3.6339    2.3216   -1.9912 O.2       1 <1>        -0.4909
      4 C4          4.1621    2.3655    0.3085 C.3       1 <1>         0.1031
      5 N5          3.3669    1.1354    0.3326 N.am      1 <1>        -0.2788
      6 C6          2.0395    1.1056    0.5391 C.2       1 <1>         0.1623
      7 O7          1.3186    2.0620    0.7308 O.2       1 <1>        -0.4256
      8 C8          1.6128   -0.3460    0.4871 C.3       1 <1>         0.1323
      9 O9          1.0461   -0.7464    1.7363 O.3       1 <1>        -0.4424
     10 C10         0.6137   -0.5707   -0.6498 C.3       1 <1>         0.0889
     11 C11        -0.5641    0.3527   -0.4730 C.2       1 <1>         0.0898
     12 O12        -0.6009    1.1152    0.4692 O.2       1 <1>        -0.4424
     13 C13        -1.6690    0.3290   -1.4434 C.ar      1 <1>        -0.0057
     14 C14        -1.6244   -0.5626   -2.5330 C.ar      1 <1>        -0.0780
     15 C15        -2.6319   -0.6022   -3.4405 C.ar      1 <1>        -0.0838
     16 C16        -3.7404    0.2537   -3.3012 C.ar      1 <1>        -0.0765
     17 C17        -4.7949    0.2290   -4.2288 C.ar      1 <1>        -0.0873
     18 C18        -5.8549    1.0685   -4.0685 C.ar      1 <1>        -0.0979
     19 C19        -5.9125    1.9559   -2.9954 C.ar      1 <1>        -0.0980
     20 C20        -4.9100    2.0092   -2.0766 C.ar      1 <1>        -0.0875
     21 C21        -3.7985    1.1567   -2.2087 C.ar      1 <1>        -0.0686
     22 C22        -2.7520    1.1816   -1.2763 C.ar      1 <1>        -0.0600
     23 C23         2.8973   -1.0974    0.2232 C.ar      1 <1>        -0.0115
     24 C24         3.1849   -2.4344    0.0680 C.ar      1 <1>        -0.0756
     25 C25         4.4878   -2.8371   -0.1701 C.ar      1 <1>        -0.0919
     26 C26         5.4954   -1.8939   -0.2512 C.ar      1 <1>        -0.0896
     27 C27         5.2098   -0.5529   -0.0956 C.ar      1 <1>        -0.0594
     28 C28         3.9000   -0.1392    0.1379 C.ar      1 <1>        -0.0221
     29 H29         4.9184    4.3874   -2.2665 H         1 <1>         0.2769
     30 H30         5.3448    4.5092   -0.6459 H         1 <1>         0.2691
     31 H31         5.1751    2.1501    0.6485 H         1 <1>         0.1679
     32 H32         3.7073    3.1051    0.9674 H         1 <1>         0.1679
     33 H33         0.2522   -0.2532    1.9841 H         1 <1>         0.3454
     34 H34         1.0972   -0.3641   -1.6045 H         1 <1>         0.1143
     35 H35         0.2703   -1.6050   -0.6326 H         1 <1>         0.1143
     36 H36        -0.7772   -1.2226   -2.6476 H         1 <1>         0.1304
     37 H37        -2.5832   -1.2911   -4.2710 H         1 <1>         0.1274
     38 H38        -4.7649   -0.4527   -5.0658 H         1 <1>         0.1266
     39 H39        -6.6634    1.0465   -4.7842 H         1 <1>         0.1251
     40 H40        -6.7649    2.6109   -2.8917 H         1 <1>         0.1215
     41 H41        -4.9673    2.7022   -1.2504 H         1 <1>         0.1296
     42 H42        -2.7861    1.8609   -0.4373 H         1 <1>         0.1524
     43 H43         2.3953   -3.1683    0.1324 H         1 <1>         0.1397
     44 H44         4.7166   -3.8856   -0.2919 H         1 <1>         0.1196
     45 H45         6.5117   -2.2084   -0.4371 H         1 <1>         0.1315
     46 H46         6.0024    0.1779   -0.1597 H         1 <1>         0.1290
@<TRIPOS>BOND
     1    1    2 am
     2    1   29 1
     3    1   30 1
     4    2    3 2
     5    2    4 1
     6    4    5 1
     7    4   31 1
     8    4   32 1
     9    5   28 1
    10    5    6 am
    11    6    7 2
    12    6    8 1
    13    8    9 1
    14    8   10 1
    15    8   23 1
    16    9   33 1
    17   10   11 1
    18   10   34 1
    19   10   35 1
    20   11   12 2
    21   11   13 1
    22   13   22 ar
    23   13   14 ar
    24   14   15 ar
    25   14   36 1
    26   15   16 ar
    27   15   37 1
    28   16   21 ar
    29   16   17 ar
    30   17   18 ar
    31   17   38 1
    32   18   19 ar
    33   18   39 1
    34   19   20 ar
    35   19   40 1
    36   20   21 ar
    37   20   41 1
    38   21   22 ar
    39   22   42 1
    40   23   28 ar
    41   23   24 ar
    42   24   25 ar
    43   24   43 1
    44   25   26 ar
    45   25   44 1
    46   26   27 ar
    47   26   45 1
    48   27   28 ar
    49   27   46 1
@<TRIPOS>Similarity
1.1151
@<TRIPOS>ShapeSim
0.7388
@<TRIPOS>PharmSim
0.3763
# END
# Name:		C1=CC=C2C=C(C=CC2=C1)C(=O)CC3(C4=CC=CC=C4N(C3=O)CC(=O)N)O
# Created and modified by SHAFTS on Thu Mar 11 05:28:35 2021

# 

@<TRIPOS>MOLECULE
C1=CC=C2C=C(C=CC2=C1)C(=O)CC3(C4=CC=CC=C4N(C3=O)CC(=O)N)O
   46    49     0
SMALL
USER_CHARGE


@<TRIPOS>ATOM
      1 N1          4.8886    4.0395   -1.3615 N.am      1 <1>        -0.3530
      2 C2          4.2085    2.9062   -1.0974 C.2       1 <1>         0.0812
      3 O3          3.6339    2.3216   -1.9912 O.2       1 <1>        -0.4909
      4 C4          4.1621    2.3655    0.3085 C.3       1 <1>         0.1031
      5 N5          3.3669    1.1354    0.3326 N.am      1 <1>        -0.2788
      6 C6          2.0395    1.1056    0.5391 C.2       1 <1>         0.1623
      7 O7          1.3186    2.0620    0.7308 O.2       1 <1>        -0.4256
      8 C8          1.6128   -0.3460    0.4871 C.3       1 <1>         0.1323
      9 O9          1.0461   -0.7464    1.7363 O.3       1 <1>        -0.4424
     10 C10         0.6137   -0.5707   -0.6498 C.3       1 <1>         0.0889
     11 C11        -0.5641    0.3527   -0.4730 C.2       1 <1>         0.0898
     12 O12        -0.6009    1.1152    0.4692 O.2       1 <1>        -0.4424
     13 C13        -1.6690    0.3290   -1.4434 C.ar      1 <1>        -0.0057
     14 C14        -1.6244   -0.5626   -2.5330 C.ar      1 <1>        -0.0780
     15 C15        -2.6319   -0.6022   -3.4405 C.ar      1 <1>        -0.0838
     16 C16        -3.7404    0.2537   -3.3012 C.ar      1 <1>        -0.0765
     17 C17        -4.7949    0.2290   -4.2288 C.ar      1 <1>        -0.0873
     18 C18        -5.8549    1.0685   -4.0685 C.ar      1 <1>        -0.0979
     19 C19        -5.9125    1.9559   -2.9954 C.ar      1 <1>        -0.0980
     20 C20        -4.9100    2.0092   -2.0766 C.ar      1 <1>        -0.0875
     21 C21        -3.7985    1.1567   -2.2087 C.ar      1 <1>        -0.0686
     22 C22        -2.7520    1.1816   -1.2763 C.ar      1 <1>        -0.0600
     23 C23         2.8973   -1.0974    0.2232 C.ar      1 <1>        -0.0115
     24 C24         3.1849   -2.4344    0.0680 C.ar      1 <1>        -0.0756
     25 C25         4.4878   -2.8371   -0.1701 C.ar      1 <1>        -0.0919
     26 C26         5.4954   -1.8939   -0.2512 C.ar      1 <1>        -0.0896
     27 C27         5.2098   -0.5529   -0.0956 C.ar      1 <1>        -0.0594
     28 C28         3.9000   -0.1392    0.1379 C.ar      1 <1>        -0.0221
     29 H29         4.9184    4.3874   -2.2665 H         1 <1>         0.2769
     30 H30         5.3448    4.5092   -0.6459 H         1 <1>         0.2691
     31 H31         5.1751    2.1501    0.6485 H         1 <1>         0.1679
     32 H32         3.7073    3.1051    0.9674 H         1 <1>         0.1679
     33 H33         0.2522   -0.2532    1.9841 H         1 <1>         0.3454
     34 H34         1.0972   -0.3641   -1.6045 H         1 <1>         0.1143
     35 H35         0.2703   -1.6050   -0.6326 H         1 <1>         0.1143
     36 H36        -0.7772   -1.2226   -2.6476 H         1 <1>         0.1304
     37 H37        -2.5832   -1.2911   -4.2710 H         1 <1>         0.1274
     38 H38        -4.7649   -0.4527   -5.0658 H         1 <1>         0.1266
     39 H39        -6.6634    1.0465   -4.7842 H         1 <1>         0.1251
     40 H40        -6.7649    2.6109   -2.8917 H         1 <1>         0.1215
     41 H41        -4.9673    2.7022   -1.2504 H         1 <1>         0.1296
     42 H42        -2.7861    1.8609   -0.4373 H         1 <1>         0.1524
     43 H43         2.3953   -3.1683    0.1324 H         1 <1>         0.1397
     44 H44         4.7166   -3.8856   -0.2919 H         1 <1>         0.1196
     45 H45         6.5117   -2.2084   -0.4371 H         1 <1>         0.1315
     46 H46         6.0024    0.1779   -0.1597 H         1 <1>         0.1290
@<TRIPOS>BOND
     1    1    2 am
     2    1   29 1
     3    1   30 1
     4    2    3 2
     5    2    4 1
     6    4    5 1
     7    4   31 1
     8    4   32 1
     9    5   28 1
    10    5    6 am
    11    6    7 2
    12    6    8 1
    13    8    9 1
    14    8   10 1
    15    8   23 1
    16    9   33 1
    17   10   11 1
    18   10   34 1
    19   10   35 1
    20   11   12 2
    21   11   13 1
    22   13   22 ar
    23   13   14 ar
    24   14   15 ar
    25   14   36 1
    26   15   16 ar
    27   15   37 1
    28   16   21 ar
    29   16   17 ar
    30   17   18 ar
    31   17   38 1
    32   18   19 ar
    33   18   39 1
    34   19   20 ar
    35   19   40 1
    36   20   21 ar
    37   20   41 1
    38   21   22 ar
    39   22   42 1
    40   23   28 ar
    41   23   24 ar
    42   24   25 ar
    43   24   43 1
    44   25   26 ar
    45   25   44 1
    46   26   27 ar
    47   26   45 1
    48   27   28 ar
    49   27   46 1
@<TRIPOS>Similarity
1.1151
@<TRIPOS>ShapeSim
0.7388
@<TRIPOS>PharmSim
0.3763
# END
# Name:		O=C(O)CC1=C(N(C2=C1C=C(C=C2)OC)C(C3=CC=C(Cl)C=C3)=O)C
# Created and modified by SHAFTS on Thu Mar 11 05:28:35 2021

# 

@<TRIPOS>MOLECULE
O=C(O)CC1=C(N(C2=C1C=C(C=C2)OC)C(C3=CC=C(Cl)C=C3)=O)C
   40    42     0
SMALL
USER_CHARGE


@<TRIPOS>ATOM
      1 C1          5.9776   -4.1044   -2.3491 C.3       1 <1>         0.0300
      2 O2          6.0448   -2.9021   -1.5796 O.3       1 <1>        -0.3200
      3 C3          4.8840   -2.4553   -1.0300 C.ar      1 <1>         0.1000
      4 C4          3.7050   -3.1679   -1.2257 C.ar      1 <1>        -0.1800
      5 C5          2.5204   -2.7281   -0.6753 C.ar      1 <1>        -0.0900
      6 C6          2.4964   -1.5640    0.0821 C.ar      1 <1>         0.0800
      7 C7          3.6855   -0.8415    0.2818 C.ar      1 <1>        -0.0400
      8 C8          4.8808   -1.2982   -0.2745 C.ar      1 <1>        -0.0900
      9 C9          3.3261    0.3153    1.1092 C.2       1 <1>        -0.0800
     10 C10         4.2611    1.3930    1.5947 C.3       1 <1>        -0.1300
     11 C11         4.3092    2.5093    0.5834 C.2       1 <1>         0.5000
     12 O12         3.6459    2.4365   -0.4369 O.co2     1 <1>        -0.5000
     13 O13         5.0116    3.4852    0.7857 O.co2     1 <1>        -0.5000
     14 C14         2.0105    0.2347    1.3521 C.2       1 <1>         0.0700
     15 C15         1.2188    1.2242    2.1677 C.3       1 <1>        -0.0900
     16 N16         1.4907   -0.8836    0.7467 N.am      1 <1>        -0.5100
     17 C17         0.1976   -1.2608    0.7925 C.2       1 <1>         0.6100
     18 O18        -0.1725   -2.0619    1.6281 O.2       1 <1>        -0.4400
     19 C19        -0.7696   -0.7008   -0.1724 C.ar      1 <1>        -0.1600
     20 C20        -0.3291    0.1329   -1.2029 C.ar      1 <1>        -0.0400
     21 C21        -1.2370    0.6524   -2.1012 C.ar      1 <1>        -0.1200
     22 C22        -2.5835    0.3490   -1.9832 C.ar      1 <1>         0.0000
     23 Cl23       -3.7204    1.0065   -3.1186 Cl        1 <1>        -0.0600
     24 C24        -3.0265   -0.4773   -0.9635 C.ar      1 <1>        -0.1300
     25 C25        -2.1279   -1.0072   -0.0621 C.ar      1 <1>        -0.0400
     26 H26         6.9697   -4.3486   -2.7289 H         1 <1>         0.0900
     27 H27         5.6189   -4.9189   -1.7197 H         1 <1>         0.0500
     28 H28         5.2930   -3.9628   -3.1854 H         1 <1>         0.0500
     29 H29         3.7181   -4.0733   -1.8144 H         1 <1>         0.1300
     30 H30         1.6107   -3.2885   -0.8331 H         1 <1>         0.1200
     31 H31         5.7963   -0.7458   -0.1230 H         1 <1>         0.1300
     32 H32         3.9035    1.7817    2.5482 H         1 <1>         0.0700
     33 H33         5.2600    0.9764    1.7239 H         1 <1>         0.0700
     34 H34         0.8377    2.0101    1.5156 H         1 <1>         0.0800
     35 H35         0.3839    0.7138    2.6478 H         1 <1>         0.0600
     36 H36         1.8621    1.6643    2.9295 H         1 <1>         0.0900
     37 H37         0.7203    0.3705   -1.2958 H         1 <1>         0.1500
     38 H38        -0.8979    1.2974   -2.8983 H         1 <1>         0.1500
     39 H39        -4.0776   -0.7098   -0.8764 H         1 <1>         0.1400
     40 H40        -2.4744   -1.6515    0.7324 H         1 <1>         0.1400
@<TRIPOS>BOND
     1    1    2 1
     2    1   26 1
     3    1   27 1
     4    1   28 1
     5    2    3 1
     6    3    8 ar
     7    3    4 ar
     8    4    5 ar
     9    4   29 1
    10    5    6 ar
    11    5   30 1
    12    6   16 1
    13    6    7 ar
    14    7    8 ar
    15    7    9 1
    16    8   31 1
    17    9   10 1
    18    9   14 2
    19   10   11 1
    20   10   32 1
    21   10   33 1
    22   11   12 ar
    23   11   13 ar
    24   14   15 1
    25   14   16 1
    26   15   34 1
    27   15   35 1
    28   15   36 1
    29   16   17 am
    30   17   18 2
    31   17   19 1
    32   19   25 ar
    33   19   20 ar
    34   20   21 ar
    35   20   37 1
    36   21   22 ar
    37   21   38 1
    38   22   23 1
    39   22   24 ar
    40   24   25 ar
    41   24   39 1
    42   25   40 1
@<TRIPOS>Similarity
1.1148
@<TRIPOS>ShapeSim
0.8097
@<TRIPOS>PharmSim
0.3052
# END
# Name:		CC1=C(C2=C(N1C(=O)C3=CC=C(C=C3)Cl)C=CC(=C2)OC)CC(=O)O
# Created and modified by SHAFTS on Thu Mar 11 05:28:35 2021

# 

@<TRIPOS>MOLECULE
CC1=C(C2=C(N1C(=O)C3=CC=C(C=C3)Cl)C=CC(=C2)OC)CC(=O)O
   40    42     0
SMALL
USER_CHARGE


@<TRIPOS>ATOM
      1 C1          5.9776   -4.1044   -2.3491 C.3       1 <1>         0.0300
      2 O2          6.0448   -2.9021   -1.5796 O.3       1 <1>        -0.3200
      3 C3          4.8840   -2.4553   -1.0300 C.ar      1 <1>         0.1000
      4 C4          3.7050   -3.1679   -1.2257 C.ar      1 <1>        -0.1800
      5 C5          2.5204   -2.7281   -0.6753 C.ar      1 <1>        -0.0900
      6 C6          2.4964   -1.5640    0.0821 C.ar      1 <1>         0.0800
      7 C7          3.6855   -0.8415    0.2818 C.ar      1 <1>        -0.0400
      8 C8          4.8808   -1.2982   -0.2745 C.ar      1 <1>        -0.0900
      9 C9          3.3261    0.3153    1.1092 C.2       1 <1>        -0.0800
     10 C10         4.2611    1.3930    1.5947 C.3       1 <1>        -0.1300
     11 C11         4.3092    2.5093    0.5834 C.2       1 <1>         0.5000
     12 O12         3.6459    2.4365   -0.4369 O.co2     1 <1>        -0.5000
     13 O13         5.0116    3.4852    0.7857 O.co2     1 <1>        -0.5000
     14 C14         2.0105    0.2347    1.3521 C.2       1 <1>         0.0700
     15 C15         1.2188    1.2242    2.1677 C.3       1 <1>        -0.0900
     16 N16         1.4907   -0.8836    0.7467 N.am      1 <1>        -0.5100
     17 C17         0.1976   -1.2608    0.7925 C.2       1 <1>         0.6100
     18 O18        -0.1725   -2.0619    1.6281 O.2       1 <1>        -0.4400
     19 C19        -0.7696   -0.7008   -0.1724 C.ar      1 <1>        -0.1600
     20 C20        -0.3291    0.1329   -1.2029 C.ar      1 <1>        -0.0400
     21 C21        -1.2370    0.6524   -2.1012 C.ar      1 <1>        -0.1200
     22 C22        -2.5835    0.3490   -1.9832 C.ar      1 <1>         0.0000
     23 Cl23       -3.7204    1.0065   -3.1186 Cl        1 <1>        -0.0600
     24 C24        -3.0265   -0.4773   -0.9635 C.ar      1 <1>        -0.1300
     25 C25        -2.1279   -1.0072   -0.0621 C.ar      1 <1>        -0.0400
     26 H26         6.9697   -4.3486   -2.7289 H         1 <1>         0.0900
     27 H27         5.6189   -4.9189   -1.7197 H         1 <1>         0.0500
     28 H28         5.2930   -3.9628   -3.1854 H         1 <1>         0.0500
     29 H29         3.7181   -4.0733   -1.8144 H         1 <1>         0.1300
     30 H30         1.6107   -3.2885   -0.8331 H         1 <1>         0.1200
     31 H31         5.7963   -0.7458   -0.1230 H         1 <1>         0.1300
     32 H32         3.9035    1.7817    2.5482 H         1 <1>         0.0700
     33 H33         5.2600    0.9764    1.7239 H         1 <1>         0.0700
     34 H34         0.8377    2.0101    1.5156 H         1 <1>         0.0800
     35 H35         0.3839    0.7138    2.6478 H         1 <1>         0.0600
     36 H36         1.8621    1.6643    2.9295 H         1 <1>         0.0900
     37 H37         0.7203    0.3705   -1.2958 H         1 <1>         0.1500
     38 H38        -0.8979    1.2974   -2.8983 H         1 <1>         0.1500
     39 H39        -4.0776   -0.7098   -0.8764 H         1 <1>         0.1400
     40 H40        -2.4744   -1.6515    0.7324 H         1 <1>         0.1400
@<TRIPOS>BOND
     1    1    2 1
     2    1   26 1
     3    1   27 1
     4    1   28 1
     5    2    3 1
     6    3    8 ar
     7    3    4 ar
     8    4    5 ar
     9    4   29 1
    10    5    6 ar
    11    5   30 1
    12    6   16 1
    13    6    7 ar
    14    7    8 ar
    15    7    9 1
    16    8   31 1
    17    9   10 1
    18    9   14 2
    19   10   11 1
    20   10   32 1
    21   10   33 1
    22   11   12 ar
    23   11   13 ar
    24   14   15 1
    25   14   16 1
    26   15   34 1
    27   15   35 1
    28   15   36 1
    29   16   17 am
    30   17   18 2
    31   17   19 1
    32   19   25 ar
    33   19   20 ar
    34   20   21 ar
    35   20   37 1
    36   21   22 ar
    37   21   38 1
    38   22   23 1
    39   22   24 ar
    40   24   25 ar
    41   24   39 1
    42   25   40 1
@<TRIPOS>Similarity
1.1148
@<TRIPOS>ShapeSim
0.8097
@<TRIPOS>PharmSim
0.3052
# END
# Name:		C1=CC2=C(C=C1I)C(=CC3=CC(=C(C(=C3)Br)O)Br)C(=O)N2
# Created and modified by SHAFTS on Thu Mar 11 05:28:35 2021

# 

@<TRIPOS>MOLECULE
C1=CC2=C(C=C1I)C(=CC3=CC(=C(C(=C3)Br)O)Br)C(=O)N2
   28    30     0
SMALL
USER_CHARGE


@<TRIPOS>ATOM
      1 O1          3.9772    2.3502    1.9836 O.2       1 <1>        -0.4740
      2 C2          4.0195    1.2902    1.3861 C.2       1 <1>         0.1102
      3 N3          5.1053    0.5141    1.2294 N.am      1 <1>        -0.3010
      4 C4          4.8107   -0.6286    0.4946 C.ar      1 <1>        -0.0397
      5 C5          5.6021   -1.6979    0.0907 C.ar      1 <1>        -0.0616
      6 C6          5.0525   -2.7269   -0.6475 C.ar      1 <1>        -0.0767
      7 C7          3.7116   -2.7086   -0.9938 C.ar      1 <1>        -0.0393
      8 I8          2.8989   -4.2810   -2.1146 I         1 <1>        -0.1068
      9 C9          2.9096   -1.6551   -0.6006 C.ar      1 <1>        -0.0605
     10 C10         3.4544   -0.6138    0.1423 C.ar      1 <1>        -0.0315
     11 C11         2.8883    0.6297    0.7133 C.2       1 <1>         0.0360
     12 C12         1.5984    1.0686    0.6330 C.2       1 <1>        -0.0553
     13 C13         0.5522    0.1792    0.1201 C.ar      1 <1>        -0.0746
     14 C14         0.4969   -1.1570    0.5397 C.ar      1 <1>        -0.0821
     15 C15        -0.4880   -1.9880    0.0545 C.ar      1 <1>        -0.0066
     16 Br16       -0.5643   -3.7909    0.6194 Br        1 <1>        -0.1379
     17 C17        -1.4273   -1.5034   -0.8500 C.ar      1 <1>        -0.0247
     18 O18        -2.3967   -2.3267   -1.3244 O.3       1 <1>        -0.5204
     19 C19        -1.3773   -0.1779   -1.2700 C.ar      1 <1>        -0.0085
     20 Br20       -2.6586    0.4713   -2.4999 Br        1 <1>        -0.1447
     21 C21        -0.4001    0.6634   -0.7874 C.ar      1 <1>        -0.0808
     22 H22         5.9834    0.7247    1.5839 H         1 <1>         0.3275
     23 H23         6.6491   -1.7234    0.3546 H         1 <1>         0.1285
     24 H24         5.6741   -3.5536   -0.9581 H         1 <1>         0.1355
     25 H25         1.8638   -1.6397   -0.8700 H         1 <1>         0.1585
     26 H26         1.3486    2.0712    0.9473 H         1 <1>         0.1716
     27 H27         1.2256   -1.5343    1.2419 H         1 <1>         0.1307
     28 H28        -0.3623    1.6922   -1.1138 H         1 <1>         0.1383
@<TRIPOS>BOND
     1    1    2 2
     2    2   11 1
     3    2    3 am
     4    3    4 1
     5    3   22 1
     6    4   10 ar
     7    4    5 ar
     8    5    6 ar
     9    5   23 1
    10    6    7 ar
    11    6   24 1
    12    7    8 1
    13    7    9 ar
    14    9   10 ar
    15    9   25 1
    16   10   11 1
    17   11   12 2
    18   12   13 1
    19   12   26 1
    20   13   21 ar
    21   13   14 ar
    22   14   15 ar
    23   14   27 1
    24   15   16 1
    25   15   17 ar
    26   17   18 1
    27   17   19 ar
    28   19   20 1
    29   19   21 ar
    30   21   28 1
@<TRIPOS>Similarity
1.1121
@<TRIPOS>ShapeSim
0.7816
@<TRIPOS>PharmSim
0.3306
# END
# Name:		C1=CC2=C(C=C1I)C(=CC3=CC(=C(C(=C3)Br)O)Br)C(=O)N2
# Created and modified by SHAFTS on Thu Mar 11 05:28:35 2021

# 

@<TRIPOS>MOLECULE
C1=CC2=C(C=C1I)C(=CC3=CC(=C(C(=C3)Br)O)Br)C(=O)N2
   28    30     0
SMALL
USER_CHARGE


@<TRIPOS>ATOM
      1 O1          3.9772    2.3502    1.9836 O.2       1 <1>        -0.4740
      2 C2          4.0195    1.2902    1.3861 C.2       1 <1>         0.1102
      3 N3          5.1053    0.5141    1.2294 N.am      1 <1>        -0.3010
      4 C4          4.8107   -0.6286    0.4946 C.ar      1 <1>        -0.0397
      5 C5          5.6021   -1.6979    0.0907 C.ar      1 <1>        -0.0616
      6 C6          5.0525   -2.7269   -0.6475 C.ar      1 <1>        -0.0767
      7 C7          3.7116   -2.7086   -0.9938 C.ar      1 <1>        -0.0393
      8 I8          2.8989   -4.2810   -2.1146 I         1 <1>        -0.1068
      9 C9          2.9096   -1.6551   -0.6006 C.ar      1 <1>        -0.0605
     10 C10         3.4544   -0.6138    0.1423 C.ar      1 <1>        -0.0315
     11 C11         2.8883    0.6297    0.7133 C.2       1 <1>         0.0360
     12 C12         1.5984    1.0686    0.6330 C.2       1 <1>        -0.0553
     13 C13         0.5522    0.1792    0.1201 C.ar      1 <1>        -0.0746
     14 C14         0.4969   -1.1570    0.5397 C.ar      1 <1>        -0.0821
     15 C15        -0.4880   -1.9880    0.0545 C.ar      1 <1>        -0.0066
     16 Br16       -0.5643   -3.7909    0.6194 Br        1 <1>        -0.1379
     17 C17        -1.4273   -1.5034   -0.8500 C.ar      1 <1>        -0.0247
     18 O18        -2.3967   -2.3267   -1.3244 O.3       1 <1>        -0.5204
     19 C19        -1.3773   -0.1779   -1.2700 C.ar      1 <1>        -0.0085
     20 Br20       -2.6586    0.4713   -2.4999 Br        1 <1>        -0.1447
     21 C21        -0.4001    0.6634   -0.7874 C.ar      1 <1>        -0.0808
     22 H22         5.9834    0.7247    1.5839 H         1 <1>         0.3275
     23 H23         6.6491   -1.7234    0.3546 H         1 <1>         0.1285
     24 H24         5.6741   -3.5536   -0.9581 H         1 <1>         0.1355
     25 H25         1.8638   -1.6397   -0.8700 H         1 <1>         0.1585
     26 H26         1.3486    2.0712    0.9473 H         1 <1>         0.1716
     27 H27         1.2256   -1.5343    1.2419 H         1 <1>         0.1307
     28 H28        -0.3623    1.6922   -1.1138 H         1 <1>         0.1383
@<TRIPOS>BOND
     1    1    2 2
     2    2   11 1
     3    2    3 am
     4    3    4 1
     5    3   22 1
     6    4   10 ar
     7    4    5 ar
     8    5    6 ar
     9    5   23 1
    10    6    7 ar
    11    6   24 1
    12    7    8 1
    13    7    9 ar
    14    9   10 ar
    15    9   25 1
    16   10   11 1
    17   11   12 2
    18   12   13 1
    19   12   26 1
    20   13   21 ar
    21   13   14 ar
    22   14   15 ar
    23   14   27 1
    24   15   16 1
    25   15   17 ar
    26   17   18 1
    27   17   19 ar
    28   19   20 1
    29   19   21 ar
    30   21   28 1
@<TRIPOS>Similarity
1.1121
@<TRIPOS>ShapeSim
0.7816
@<TRIPOS>PharmSim
0.3306
# END
# Name:		COC1=CC=CC=C1NC2=CC3=CC(=CC(=C3C=C2)O)S(=O)(=O)O
# Created and modified by SHAFTS on Thu Mar 11 05:28:35 2021

# 

@<TRIPOS>MOLECULE
COC1=CC=CC=C1NC2=CC3=CC(=CC(=C3C=C2)O)S(=O)(=O)O
   38    40     0
SMALL
USER_CHARGE


@<TRIPOS>ATOM
      1 C1         -5.5968    0.8805   -0.2174 C.3       1 <1>         0.0300
      2 O2         -4.1813    0.8575   -0.0231 O.3       1 <1>        -0.3200
      3 C3         -3.4124    0.5970   -1.1142 C.ar      1 <1>         0.0600
      4 C4         -4.0066    0.3743   -2.3449 C.ar      1 <1>        -0.1700
      5 C5         -3.2233    0.1100   -3.4538 C.ar      1 <1>        -0.1300
      6 C6         -1.8467    0.0666   -3.3380 C.ar      1 <1>        -0.1100
      7 C7         -1.2453    0.2873   -2.1129 C.ar      1 <1>        -0.1600
      8 C8         -2.0240    0.5592   -0.9976 C.ar      1 <1>         0.1800
      9 N9         -1.4177    0.7834    0.2439 N.pl3     1 <1>        -0.6800
     10 C10        -0.0453    0.5788    0.3976 C.ar      1 <1>         0.1600
     11 C11         0.7143    1.4971    1.1321 C.ar      1 <1>        -0.1400
     12 C12         2.0525    1.3220    1.2975 C.ar      1 <1>        -0.0800
     13 C13         2.6890    0.2074    0.7273 C.ar      1 <1>        -0.0700
     14 C14         4.0752    0.0012    0.8836 C.ar      1 <1>         0.0900
     15 O15         4.8227    0.8848    1.5940 O.3       1 <1>        -0.4900
     16 C16         4.6644   -1.1030    0.3109 C.ar      1 <1>        -0.0600
     17 C17         3.9084   -2.0160   -0.4199 C.ar      1 <1>        -0.6300
     18 S18         4.6984   -3.4173   -1.1388 S.o2      1 <1>         2.6900
     19 O19         3.9482   -3.7516   -2.3394 O.co2     1 <1>        -0.5000
     20 O20         6.0643   -3.0191   -1.4416 O.co2     1 <1>        -0.5000
     21 O21         4.6469   -4.4817   -0.1486 O.co2     1 <1>        -0.5000
     22 C22         2.5688   -1.8433   -0.5870 C.ar      1 <1>        -0.0200
     23 C23         1.9288   -0.7282   -0.0178 C.ar      1 <1>        -0.0400
     24 C24         0.5473   -0.5283   -0.1705 C.ar      1 <1>        -0.1400
     25 H25        -5.9289   -0.0905   -0.5846 H         1 <1>         0.0500
     26 H26        -6.0901    1.0990    0.7297 H         1 <1>         0.1000
     27 H27        -5.8511    1.6508   -0.9456 H         1 <1>         0.0500
     28 H28        -5.0820    0.4069   -2.4389 H         1 <1>         0.1300
     29 H29        -3.6888   -0.0634   -4.4129 H         1 <1>         0.1200
     30 H30        -1.2393   -0.1405   -4.2066 H         1 <1>         0.1300
     31 H31        -0.1694    0.2524   -2.0251 H         1 <1>         0.1400
     32 H32        -1.9511    1.0809    0.9975 H         1 <1>         0.4100
     33 H33         0.2311    2.3563    1.5731 H         1 <1>         0.1200
     34 H34         2.6254    2.0394    1.8662 H         1 <1>         0.1300
     35 H35         4.8872    0.6771    2.5363 H         1 <1>         0.3800
     36 H36         5.7259   -1.2629    0.4292 H         1 <1>         0.1400
     37 H37         1.9980   -2.5616   -1.1569 H         1 <1>         0.1400
     38 H38        -0.0457   -1.2348   -0.7324 H         1 <1>         0.1400
@<TRIPOS>BOND
     1    1    2 1
     2    1   25 1
     3    1   26 1
     4    1   27 1
     5    2    3 1
     6    3    8 ar
     7    3    4 ar
     8    4    5 ar
     9    4   28 1
    10    5    6 ar
    11    5   29 1
    12    6    7 ar
    13    6   30 1
    14    7    8 ar
    15    7   31 1
    16    8    9 1
    17    9   10 1
    18    9   32 1
    19   10   24 ar
    20   10   11 ar
    21   11   12 ar
    22   11   33 1
    23   12   13 ar
    24   12   34 1
    25   13   23 ar
    26   13   14 ar
    27   14   15 1
    28   14   16 ar
    29   15   35 1
    30   16   17 ar
    31   16   36 1
    32   17   18 1
    33   17   22 ar
    34   18   19 ar
    35   18   20 ar
    36   18   21 ar
    37   22   23 ar
    38   22   37 1
    39   23   24 ar
    40   24   38 1
@<TRIPOS>Similarity
1.1104
@<TRIPOS>ShapeSim
0.7999
@<TRIPOS>PharmSim
0.3104
# END
# Name:		CN(CC1=NC=C(C=CC=C2)C2=C1CCCN(C)C)[C@@H]3C4=NC=CC=C4CCC3
# Created and modified by SHAFTS on Thu Mar 11 05:28:35 2021

# 

@<TRIPOS>MOLECULE
CN(CC1=NC=C(C=CC=C2)C2=C1CCCN(C)C)[C@@H]3C4=NC=CC=C4CCC3
   63    66     0
SMALL
USER_CHARGE


@<TRIPOS>ATOM
      1 C1         -0.0427   -4.4653    3.7583 C.3       1 <1>        -0.0937
      2 N2          0.3529   -5.4526    2.7450 N.4       1 <1>         0.4081
      3 H3          1.2553   -5.8358    2.9831 H         1 <1>         0.1632
      4 C4         -0.6414   -6.5330    2.6998 C.3       1 <1>        -0.0910
      5 C5          0.4286   -4.8016    1.4304 C.3       1 <1>        -0.1039
      6 C6          1.5500   -3.7607    1.4406 C.3       1 <1>        -0.0661
      7 C7          1.6289   -3.0826    0.0713 C.3       1 <1>        -0.0365
      8 C8          2.6476   -1.9731    0.1182 C.ar      1 <1>        -0.0767
      9 C9          3.9846   -2.2108   -0.2481 C.ar      1 <1>        -0.0687
     10 C10         4.4319   -3.4713   -0.6696 C.ar      1 <1>        -0.0845
     11 C11         5.7397   -3.6387   -1.0118 C.ar      1 <1>        -0.0878
     12 C12         6.6402   -2.5767   -0.9492 C.ar      1 <1>        -0.0851
     13 C13         6.2410   -1.3393   -0.5447 C.ar      1 <1>        -0.0731
     14 C14         4.9007   -1.1284   -0.1844 C.ar      1 <1>        -0.0337
     15 C15         4.4309    0.1248    0.2398 C.ar      1 <1>        -0.0100
     16 N16         3.1683    0.2738    0.5662 N.ar      1 <1>        -0.3974
     17 C17         2.2908   -0.7185    0.5108 C.ar      1 <1>        -0.0695
     18 C18         0.8606   -0.4538    0.9048 C.3       1 <1>        -0.0449
     19 N19         0.0731   -0.1369   -0.2941 N.4       1 <1>         0.4152
     20 H20         0.1862   -0.8729   -0.9750 H         1 <1>         0.1791
     21 C21         0.5396    1.1339   -0.8647 C.3       1 <1>        -0.0802
     22 C22        -1.3455   -0.0193    0.0686 C.3       1 <1>        -0.0609
     23 H23        -1.6715   -0.9420    0.5486 H         1 <1>         0.1267
     24 C24        -1.5216    1.1442    1.0422 C.3       1 <1>        -0.0532
     25 C25        -3.0220    1.3860    1.2436 C.3       1 <1>        -0.0526
     26 C26        -3.5952    1.9598   -0.0510 C.3       1 <1>        -0.0325
     27 C27        -3.1985    1.1089   -1.2271 C.ar      1 <1>        -0.0783
     28 C28        -3.9198    1.2510   -2.4084 C.ar      1 <1>        -0.0760
     29 C29        -3.5667    0.4813   -3.5038 C.ar      1 <1>        -0.0577
     30 C30        -2.5093   -0.4006   -3.3860 C.ar      1 <1>        -0.0390
     31 N31        -1.8513   -0.5100   -2.2522 N.ar      1 <1>        -0.4154
     32 C32        -2.1606    0.2070   -1.1788 C.ar      1 <1>        -0.0714
     33 H33        -1.0176   -4.0512    3.5012 H         1 <1>         0.0741
     34 H34        -0.0989   -4.9483    4.7339 H         1 <1>         0.0812
     35 H35         0.6951   -3.6636    3.7918 H         1 <1>         0.0741
     36 H36        -1.6164   -6.1190    2.4426 H         1 <1>         0.0766
     37 H37        -0.3480   -7.2656    1.9480 H         1 <1>         0.0838
     38 H38        -0.6977   -7.0161    3.6753 H         1 <1>         0.0838
     39 H39         0.6348   -5.5502    0.6655 H         1 <1>         0.0944
     40 H40        -0.5202   -4.3113    1.2125 H         1 <1>         0.0873
     41 H41         1.3437   -3.0120    2.2055 H         1 <1>         0.0596
     42 H42         2.4987   -4.2509    1.6585 H         1 <1>         0.0667
     43 H43         1.9237   -3.8150   -0.6803 H         1 <1>         0.0895
     44 H44         0.6537   -2.6698   -0.1865 H         1 <1>         0.0611
     45 H45         3.7449   -4.3030   -0.7221 H         1 <1>         0.1233
     46 H46         6.0842   -4.6094   -1.3364 H         1 <1>         0.1405
     47 H47         7.6716   -2.7380   -1.2257 H         1 <1>         0.1359
     48 H48         6.9504   -0.5261   -0.5011 H         1 <1>         0.1478
     49 H49         5.1074    0.9648    0.2977 H         1 <1>         0.2395
     50 H50         0.4468   -1.3391    1.3877 H         1 <1>         0.1146
     51 H51         0.8240    0.3879    1.5964 H         1 <1>         0.1290
     52 H52         1.5467    1.0060   -1.2615 H         1 <1>         0.0803
     53 H53        -0.1312    1.4397   -1.6675 H         1 <1>         0.0803
     54 H54         0.5495    1.8988   -0.0882 H         1 <1>         0.0874
     55 H55        -1.0591    0.8957    1.9974 H         1 <1>         0.0706
     56 H56        -1.0582    2.0403    0.6296 H         1 <1>         0.0706
     57 H57        -3.5175    0.4439    1.4786 H         1 <1>         0.0578
     58 H58        -3.1737    2.0943    2.0580 H         1 <1>         0.0720
     59 H59        -4.6825    1.9908    0.0198 H         1 <1>         0.0806
     60 H60        -3.2159    2.9715   -0.1949 H         1 <1>         0.0806
     61 H61        -4.7414    1.9494   -2.4698 H         1 <1>         0.1496
     62 H62        -4.1084    0.5684   -4.4341 H         1 <1>         0.1446
     63 H63        -2.2206   -1.0059   -4.2325 H         1 <1>         0.2104
@<TRIPOS>BOND
     1    1    2 1
     2    1   33 1
     3    1   34 1
     4    1   35 1
     5    2    3 1
     6    2    4 1
     7    2    5 1
     8    4   36 1
     9    4   37 1
    10    4   38 1
    11    5    6 1
    12    5   39 1
    13    5   40 1
    14    6    7 1
    15    6   41 1
    16    6   42 1
    17    7    8 1
    18    7   43 1
    19    7   44 1
    20    8   17 ar
    21    8    9 ar
    22    9   14 ar
    23    9   10 ar
    24   10   11 ar
    25   10   45 1
    26   11   12 ar
    27   11   46 1
    28   12   13 ar
    29   12   47 1
    30   13   14 ar
    31   13   48 1
    32   14   15 ar
    33   15   16 ar
    34   15   49 1
    35   16   17 ar
    36   17   18 1
    37   18   19 1
    38   18   50 1
    39   18   51 1
    40   19   20 1
    41   19   21 1
    42   19   22 1
    43   21   52 1
    44   21   53 1
    45   21   54 1
    46   22   23 1
    47   22   32 1
    48   22   24 1
    49   24   25 1
    50   24   55 1
    51   24   56 1
    52   25   26 1
    53   25   57 1
    54   25   58 1
    55   26   27 1
    56   26   59 1
    57   26   60 1
    58   27   32 ar
    59   27   28 ar
    60   28   29 ar
    61   28   61 1
    62   29   30 ar
    63   29   62 1
    64   30   31 ar
    65   30   63 1
    66   31   32 ar
@<TRIPOS>Similarity
1.1068
@<TRIPOS>ShapeSim
0.7449
@<TRIPOS>PharmSim
0.3619
# END
# Name:		O=C1CCC2=C3C=CC=CC3=CC=C2O1
# Created and modified by SHAFTS on Thu Mar 11 05:28:35 2021

# 

@<TRIPOS>MOLECULE
O=C1CCC2=C3C=CC=CC3=CC=C2O1
   25    27     0
SMALL
USER_CHARGE


@<TRIPOS>ATOM
      1 O1          4.3053    2.3581    2.1617 O.2       1 <1>        -0.4147
      2 C2          4.0342    1.1903    2.0105 C.2       1 <1>         0.1820
      3 C3          2.6649    0.6414    2.3602 C.3       1 <1>         0.0704
      4 C4          2.0907    0.0076    1.0892 C.3       1 <1>        -0.0127
      5 C5          3.1567   -0.8007    0.3934 C.ar      1 <1>        -0.0613
      6 C6          2.7514   -1.7870   -0.5277 C.ar      1 <1>        -0.0779
      7 C7          1.3881   -2.0183   -0.7834 C.ar      1 <1>        -0.0893
      8 C8          1.0251   -2.9774   -1.6780 C.ar      1 <1>        -0.0992
      9 C9          1.9845   -3.7357   -2.3467 C.ar      1 <1>        -0.0985
     10 C10         3.3130   -3.5392   -2.1244 C.ar      1 <1>        -0.0887
     11 C11         3.7255   -2.5574   -1.2075 C.ar      1 <1>        -0.0743
     12 C12         5.0874   -2.3236   -0.9516 C.ar      1 <1>        -0.0730
     13 C13         5.4462   -1.3702   -0.0542 C.ar      1 <1>        -0.0441
     14 C14         4.4846   -0.6053    0.6259 C.ar      1 <1>         0.0264
     15 O15         4.9317    0.3163    1.5186 O.3       1 <1>        -0.3012
     16 H16         2.7560   -0.1126    3.1420 H         1 <1>         0.1032
     17 H17         2.0160    1.4499    2.6971 H         1 <1>         0.1104
     18 H18         1.2575   -0.6435    1.3537 H         1 <1>         0.0827
     19 H19         1.7374    0.7927    0.4208 H         1 <1>         0.0756
     20 H20         0.6336   -1.4384   -0.2727 H         1 <1>         0.1244
     21 H21        -0.0224   -3.1535   -1.8731 H         1 <1>         0.1247
     22 H22         1.6692   -4.4909   -3.0515 H         1 <1>         0.1215
     23 H23         4.0456   -4.1339   -2.6498 H         1 <1>         0.1295
     24 H24         5.8435   -2.8983   -1.4656 H         1 <1>         0.1430
     25 H25         6.4941   -1.1954    0.1400 H         1 <1>         0.1412
@<TRIPOS>BOND
     1    1    2 2
     2    2   15 1
     3    2    3 1
     4    3    4 1
     5    3   16 1
     6    3   17 1
     7    4    5 1
     8    4   18 1
     9    4   19 1
    10    5   14 ar
    11    5    6 ar
    12    6   11 ar
    13    6    7 ar
    14    7    8 ar
    15    7   20 1
    16    8    9 ar
    17    8   21 1
    18    9   10 ar
    19    9   22 1
    20   10   11 ar
    21   10   23 1
    22   11   12 ar
    23   12   13 ar
    24   12   24 1
    25   13   14 ar
    26   13   25 1
    27   14   15 1
@<TRIPOS>Similarity
1.1031
@<TRIPOS>ShapeSim
0.6180
@<TRIPOS>PharmSim
0.4851
# END
# Name:		CC1=CC(=CC2=C1C3=C(C(=CC(=C3)OC)O)C(=O)O2)O
# Created and modified by SHAFTS on Thu Mar 11 05:28:35 2021

# 

@<TRIPOS>MOLECULE
CC1=CC(=CC2=C1C3=C(C(=CC(=C3)OC)O)C(=O)O2)O
   32    34     0
SMALL
USER_CHARGE


@<TRIPOS>ATOM
      1 C1         -1.6798    0.6769    3.9046 C.3       1 <1>         0.0299
      2 O2         -0.8674   -0.2382    3.1665 O.3       1 <1>        -0.4055
      3 C3          0.2507    0.2633    2.5824 C.ar      1 <1>         0.0101
      4 C4          0.5521    1.6121    2.7193 C.ar      1 <1>        -0.0172
      5 C5          1.7147    2.1234    2.1639 C.ar      1 <1>         0.0057
      6 O6          2.0074    3.4420    2.2933 O.3       1 <1>        -0.4166
      7 C7          2.5729    1.2674    1.4776 C.ar      1 <1>         0.0864
      8 C8          3.9088    1.6719    1.0179 C.2       1 <1>         0.2274
      9 O9          4.1682    2.8090    0.6946 O.2       1 <1>        -0.3893
     10 O10         4.8410    0.6833    0.9730 O.3       1 <1>        -0.2824
     11 C11         4.4572   -0.4478    0.3230 C.ar      1 <1>         0.0490
     12 C12         5.4018   -1.2052   -0.3456 C.ar      1 <1>        -0.0119
     13 C13         5.0144   -2.3421   -1.0351 C.ar      1 <1>        -0.0219
     14 O14         5.9431   -3.0936   -1.6801 O.3       1 <1>        -0.4285
     15 C15         3.6761   -2.7064   -1.0704 C.ar      1 <1>        -0.0569
     16 C16         2.7248   -1.9634   -0.3937 C.ar      1 <1>        -0.0857
     17 C17         1.2845   -2.3906   -0.5282 C.3       1 <1>        -0.0311
     18 C18         3.1037   -0.8547    0.3472 C.ar      1 <1>        -0.0209
     19 C19         2.1993   -0.0807    1.2189 C.ar      1 <1>        -0.0297
     20 C20         1.0790   -0.5822    1.8512 C.ar      1 <1>        -0.0283
     21 H21        -2.0261    1.4707    3.2428 H         1 <1>         0.0917
     22 H22        -2.5387    0.1481    4.3182 H         1 <1>         0.1279
     23 H23        -1.0945    1.1096    4.7159 H         1 <1>         0.0917
     24 H24        -0.1185    2.2634    3.2578 H         1 <1>         0.1320
     25 H25         2.5256    3.6544    3.0816 H         1 <1>         0.3713
     26 H26         6.4417   -0.9122   -0.3305 H         1 <1>         0.1476
     27 H27         6.3287   -3.7941   -1.1365 H         1 <1>         0.3665
     28 H28         3.3670   -3.5777   -1.6300 H         1 <1>         0.1311
     29 H29         1.0426   -3.1052    0.2585 H         1 <1>         0.0637
     30 H30         0.6370   -1.5184   -0.4385 H         1 <1>         0.0637
     31 H31         1.1333   -2.8569   -1.5017 H         1 <1>         0.0637
     32 H32         0.8503   -1.6377    1.8357 H         1 <1>         0.1467
@<TRIPOS>BOND
     1    1    2 1
     2    1   21 1
     3    1   22 1
     4    1   23 1
     5    2    3 1
     6    3   20 ar
     7    3    4 ar
     8    4    5 ar
     9    4   24 1
    10    5    6 1
    11    5    7 ar
    12    6   25 1
    13    7   19 ar
    14    7    8 1
    15    8    9 2
    16    8   10 1
    17   10   11 1
    18   11   18 ar
    19   11   12 ar
    20   12   13 ar
    21   12   26 1
    22   13   14 1
    23   13   15 ar
    24   14   27 1
    25   15   16 ar
    26   15   28 1
    27   16   17 1
    28   16   18 ar
    29   17   29 1
    30   17   30 1
    31   17   31 1
    32   18   19 1
    33   19   20 ar
    34   20   32 1
@<TRIPOS>Similarity
1.1008
@<TRIPOS>ShapeSim
0.6265
@<TRIPOS>PharmSim
0.4743
# END
# Name:		NCCCCN([C@H]1CCCC2=C1N=CC=C2)C[C@H]3CC4=CC=CC=C4CN3
# Created and modified by SHAFTS on Thu Mar 11 05:28:35 2021

# 

@<TRIPOS>MOLECULE
NCCCCN([C@H]1CCCC2=C1N=CC=C2)C[C@H]3CC4=CC=CC=C4CN3
   61    64     0
SMALL
USER_CHARGE


@<TRIPOS>ATOM
      1 N1          2.4261   -6.3891    3.1456 N.4       1 <1>           -nan
      2 H2          3.2396   -6.9794    3.0561 H         1 <1>           -nan
      3 H3          1.5922   -6.9534    3.0798 H         1 <1>           -nan
      4 H4          2.4464   -5.9218    4.0397 H         1 <1>           -nan
      5 C5          2.4264   -5.3885    2.0700 C.3       1 <1>           -nan
      6 C6          1.1929   -4.4936    2.2056 C.3       1 <1>           -nan
      7 C7          1.1932   -3.4515    1.0854 C.3       1 <1>           -nan
      8 C8         -0.0403   -2.5565    1.2211 C.3       1 <1>           -nan
      9 N9         -0.1199   -1.6539    0.0648 N.3       1 <1>           -nan
     10 C10        -1.4195   -0.9705    0.0190 C.3       1 <1>           -nan
     11 C11        -1.6283   -0.3646   -1.3703 C.3       1 <1>           -nan
     12 H12        -0.8818    0.4097   -1.5478 H         1 <1>           -nan
     13 C13        -3.0290    0.2425   -1.4604 C.3       1 <1>           -nan
     14 C14        -3.3243    0.6342   -2.8857 C.ar      1 <1>           -nan
     15 C15        -4.3758    1.5024   -3.1323 C.ar      1 <1>           -nan
     16 C16        -4.6780    1.8811   -4.4255 C.ar      1 <1>           -nan
     17 C17        -3.9283    1.3914   -5.4784 C.ar      1 <1>           -nan
     18 C18        -2.8795    0.5274   -5.2332 C.ar      1 <1>           -nan
     19 C19        -2.5731    0.1481   -3.9352 C.ar      1 <1>           -nan
     20 C20        -1.4161   -0.7899   -3.7133 C.3       1 <1>           -nan
     21 N21        -1.5021   -1.4156   -2.3915 N.4       1 <1>           -nan
     22 H22        -0.6694   -1.9592   -2.2204 H         1 <1>           -nan
     23 H23        -2.3114   -2.0171   -2.3547 H         1 <1>           -nan
     24 C24         0.9842   -0.6850    0.0764 C.3       1 <1>           -nan
     25 H25         0.7638    0.1195   -0.6253 H         1 <1>           -nan
     26 C26         1.1288   -0.1028    1.4808 C.3       1 <1>           -nan
     27 C27         2.4088    0.7396    1.5278 C.3       1 <1>           -nan
     28 C28         3.6086   -0.2025    1.4446 C.3       1 <1>           -nan
     29 C29         3.4605   -1.1448    0.2806 C.ar      1 <1>           -nan
     30 C30         4.5982   -1.8048   -0.1736 C.ar      1 <1>           -nan
     31 C31         4.4819   -2.6804   -1.2398 C.ar      1 <1>           -nan
     32 C32         3.2396   -2.8690   -1.8152 C.ar      1 <1>           -nan
     33 N33         2.1861   -2.2258   -1.3605 N.ar      1 <1>           -nan
     34 C34         2.2562   -1.3760   -0.3433 C.ar      1 <1>           -nan
     35 H35         3.3272   -4.7790    2.1410 H         1 <1>           -nan
     36 H36         2.4046   -5.8934    1.1042 H         1 <1>           -nan
     37 H37         0.2921   -5.1032    2.1346 H         1 <1>           -nan
     38 H38         1.2147   -3.9888    3.1715 H         1 <1>           -nan
     39 H39         2.0940   -2.8419    1.1565 H         1 <1>           -nan
     40 H40         1.1714   -3.9563    0.1196 H         1 <1>           -nan
     41 H41        -0.9362   -3.1762    1.2606 H         1 <1>           -nan
     42 H42         0.0359   -1.9691    2.1360 H         1 <1>           -nan
     43 H43        -2.2143   -1.6871    0.2260 H         1 <1>           -nan
     44 H44        -1.4401   -0.1785    0.7677 H         1 <1>           -nan
     45 H45        -3.7637   -0.4901   -1.1261 H         1 <1>           -nan
     46 H46        -3.0830    1.1254   -0.8233 H         1 <1>           -nan
     47 H47        -4.9619    1.8842   -2.3095 H         1 <1>           -nan
     48 H48        -5.4984    2.5579   -4.6138 H         1 <1>           -nan
     49 H49        -4.1625    1.6839   -6.4913 H         1 <1>           -nan
     50 H50        -2.2947    0.1451   -6.0568 H         1 <1>           -nan
     51 H51        -1.4299   -1.5652   -4.4793 H         1 <1>           -nan
     52 H52        -0.4824   -0.2319   -3.7844 H         1 <1>           -nan
     53 H53         0.2678    0.5261    1.7071 H         1 <1>           -nan
     54 H54         1.1960   -0.9122    2.2078 H         1 <1>           -nan
     55 H55         2.4252    1.4301    0.6846 H         1 <1>           -nan
     56 H56         2.4458    1.2996    2.4622 H         1 <1>           -nan
     57 H57         4.5185    0.3843    1.3189 H         1 <1>           -nan
     58 H58         3.6777   -0.7788    2.3672 H         1 <1>           -nan
     59 H59         5.5554   -1.6367    0.2972 H         1 <1>           -nan
     60 H60         5.3470   -3.2064   -1.6156 H         1 <1>           -nan
     61 H61         3.1328   -3.5507   -2.6460 H         1 <1>           -nan
@<TRIPOS>BOND
     1    1    2 1
     2    1    3 1
     3    1    4 1
     4    1    5 1
     5    5    6 1
     6    5   35 1
     7    5   36 1
     8    6    7 1
     9    6   37 1
    10    6   38 1
    11    7    8 1
    12    7   39 1
    13    7   40 1
    14    8    9 1
    15    8   41 1
    16    8   42 1
    17    9   10 1
    18    9   24 1
    19   10   11 1
    20   10   43 1
    21   10   44 1
    22   11   12 1
    23   11   21 1
    24   11   13 1
    25   13   14 1
    26   13   45 1
    27   13   46 1
    28   14   19 ar
    29   14   15 ar
    30   15   16 ar
    31   15   47 1
    32   16   17 ar
    33   16   48 1
    34   17   18 ar
    35   17   49 1
    36   18   19 ar
    37   18   50 1
    38   19   20 1
    39   20   21 1
    40   20   51 1
    41   20   52 1
    42   21   22 1
    43   21   23 1
    44   24   25 1
    45   24   34 1
    46   24   26 1
    47   26   27 1
    48   26   53 1
    49   26   54 1
    50   27   28 1
    51   27   55 1
    52   27   56 1
    53   28   29 1
    54   28   57 1
    55   28   58 1
    56   29   34 ar
    57   29   30 ar
    58   30   31 ar
    59   30   59 1
    60   31   32 ar
    61   31   60 1
    62   32   33 ar
    63   32   61 1
    64   33   34 ar
@<TRIPOS>Similarity
1.0945
@<TRIPOS>ShapeSim
0.7217
@<TRIPOS>PharmSim
0.3728
# END
# Name:		C1CC(C2=C(C1)C=CC=N2)N(CCCCN)CC3CC4=CC=CC=C4CN3
# Created and modified by SHAFTS on Thu Mar 11 05:28:35 2021

# 

@<TRIPOS>MOLECULE
C1CC(C2=C(C1)C=CC=N2)N(CCCCN)CC3CC4=CC=CC=C4CN3
   61    64     0
SMALL
USER_CHARGE


@<TRIPOS>ATOM
      1 N1          2.4261   -6.3891    3.1456 N.4       1 <1>           -nan
      2 H2          3.2396   -6.9794    3.0561 H         1 <1>           -nan
      3 H3          1.5922   -6.9534    3.0798 H         1 <1>           -nan
      4 H4          2.4464   -5.9218    4.0397 H         1 <1>           -nan
      5 C5          2.4264   -5.3885    2.0700 C.3       1 <1>           -nan
      6 C6          1.1929   -4.4936    2.2056 C.3       1 <1>           -nan
      7 C7          1.1932   -3.4515    1.0854 C.3       1 <1>           -nan
      8 C8         -0.0403   -2.5565    1.2211 C.3       1 <1>           -nan
      9 N9         -0.1199   -1.6539    0.0648 N.3       1 <1>           -nan
     10 C10        -1.4195   -0.9705    0.0190 C.3       1 <1>           -nan
     11 C11        -1.6283   -0.3646   -1.3703 C.3       1 <1>           -nan
     12 H12        -0.8818    0.4097   -1.5478 H         1 <1>           -nan
     13 C13        -3.0290    0.2425   -1.4604 C.3       1 <1>           -nan
     14 C14        -3.3243    0.6342   -2.8857 C.ar      1 <1>           -nan
     15 C15        -4.3758    1.5024   -3.1323 C.ar      1 <1>           -nan
     16 C16        -4.6780    1.8811   -4.4255 C.ar      1 <1>           -nan
     17 C17        -3.9283    1.3914   -5.4784 C.ar      1 <1>           -nan
     18 C18        -2.8795    0.5274   -5.2332 C.ar      1 <1>           -nan
     19 C19        -2.5731    0.1481   -3.9352 C.ar      1 <1>           -nan
     20 C20        -1.4161   -0.7899   -3.7133 C.3       1 <1>           -nan
     21 N21        -1.5021   -1.4156   -2.3915 N.4       1 <1>           -nan
     22 H22        -0.6694   -1.9592   -2.2204 H         1 <1>           -nan
     23 H23        -2.3114   -2.0171   -2.3547 H         1 <1>           -nan
     24 C24         0.9842   -0.6850    0.0764 C.3       1 <1>           -nan
     25 H25         0.7638    0.1195   -0.6253 H         1 <1>           -nan
     26 C26         1.1288   -0.1028    1.4808 C.3       1 <1>           -nan
     27 C27         2.4088    0.7396    1.5278 C.3       1 <1>           -nan
     28 C28         3.6086   -0.2025    1.4446 C.3       1 <1>           -nan
     29 C29         3.4605   -1.1448    0.2806 C.ar      1 <1>           -nan
     30 C30         4.5982   -1.8048   -0.1736 C.ar      1 <1>           -nan
     31 C31         4.4819   -2.6804   -1.2398 C.ar      1 <1>           -nan
     32 C32         3.2396   -2.8690   -1.8152 C.ar      1 <1>           -nan
     33 N33         2.1861   -2.2258   -1.3605 N.ar      1 <1>           -nan
     34 C34         2.2562   -1.3760   -0.3433 C.ar      1 <1>           -nan
     35 H35         3.3272   -4.7790    2.1410 H         1 <1>           -nan
     36 H36         2.4046   -5.8934    1.1042 H         1 <1>           -nan
     37 H37         0.2921   -5.1032    2.1346 H         1 <1>           -nan
     38 H38         1.2147   -3.9888    3.1715 H         1 <1>           -nan
     39 H39         2.0940   -2.8419    1.1565 H         1 <1>           -nan
     40 H40         1.1714   -3.9563    0.1196 H         1 <1>           -nan
     41 H41        -0.9362   -3.1762    1.2606 H         1 <1>           -nan
     42 H42         0.0359   -1.9691    2.1360 H         1 <1>           -nan
     43 H43        -2.2143   -1.6871    0.2260 H         1 <1>           -nan
     44 H44        -1.4401   -0.1785    0.7677 H         1 <1>           -nan
     45 H45        -3.7637   -0.4901   -1.1261 H         1 <1>           -nan
     46 H46        -3.0830    1.1254   -0.8233 H         1 <1>           -nan
     47 H47        -4.9619    1.8842   -2.3095 H         1 <1>           -nan
     48 H48        -5.4984    2.5579   -4.6138 H         1 <1>           -nan
     49 H49        -4.1625    1.6839   -6.4913 H         1 <1>           -nan
     50 H50        -2.2947    0.1451   -6.0568 H         1 <1>           -nan
     51 H51        -1.4299   -1.5652   -4.4793 H         1 <1>           -nan
     52 H52        -0.4824   -0.2319   -3.7844 H         1 <1>           -nan
     53 H53         0.2678    0.5261    1.7071 H         1 <1>           -nan
     54 H54         1.1960   -0.9122    2.2078 H         1 <1>           -nan
     55 H55         2.4252    1.4301    0.6846 H         1 <1>           -nan
     56 H56         2.4458    1.2996    2.4622 H         1 <1>           -nan
     57 H57         4.5185    0.3843    1.3189 H         1 <1>           -nan
     58 H58         3.6777   -0.7788    2.3672 H         1 <1>           -nan
     59 H59         5.5554   -1.6367    0.2972 H         1 <1>           -nan
     60 H60         5.3470   -3.2064   -1.6156 H         1 <1>           -nan
     61 H61         3.1328   -3.5507   -2.6460 H         1 <1>           -nan
@<TRIPOS>BOND
     1    1    2 1
     2    1    3 1
     3    1    4 1
     4    1    5 1
     5    5    6 1
     6    5   35 1
     7    5   36 1
     8    6    7 1
     9    6   37 1
    10    6   38 1
    11    7    8 1
    12    7   39 1
    13    7   40 1
    14    8    9 1
    15    8   41 1
    16    8   42 1
    17    9   10 1
    18    9   24 1
    19   10   11 1
    20   10   43 1
    21   10   44 1
    22   11   12 1
    23   11   21 1
    24   11   13 1
    25   13   14 1
    26   13   45 1
    27   13   46 1
    28   14   19 ar
    29   14   15 ar
    30   15   16 ar
    31   15   47 1
    32   16   17 ar
    33   16   48 1
    34   17   18 ar
    35   17   49 1
    36   18   19 ar
    37   18   50 1
    38   19   20 1
    39   20   21 1
    40   20   51 1
    41   20   52 1
    42   21   22 1
    43   21   23 1
    44   24   25 1
    45   24   34 1
    46   24   26 1
    47   26   27 1
    48   26   53 1
    49   26   54 1
    50   27   28 1
    51   27   55 1
    52   27   56 1
    53   28   29 1
    54   28   57 1
    55   28   58 1
    56   29   34 ar
    57   29   30 ar
    58   30   31 ar
    59   30   59 1
    60   31   32 ar
    61   31   60 1
    62   32   33 ar
    63   32   61 1
    64   33   34 ar
@<TRIPOS>Similarity
1.0945
@<TRIPOS>ShapeSim
0.7217
@<TRIPOS>PharmSim
0.3728
# END
# Name:		CC(C1=CC=CC=C1)NC2=NC=C3C(=C2)C(=NO3)C4=CC5=C(C=C4)OCO5
# Created and modified by SHAFTS on Thu Mar 11 05:28:35 2021

# 

@<TRIPOS>MOLECULE
CC(C1=CC=CC=C1)NC2=NC=C3C(=C2)C(=NO3)C4=CC5=C(C=C4)OCO5
   44    48     0
SMALL
USER_CHARGE


@<TRIPOS>ATOM
      1 C1         -1.0376   -1.3260   -0.1453 C.3       1 <1>        -0.0398
      2 C2         -0.7953   -0.0806   -1.0006 C.3       1 <1>        -0.0231
      3 H3          0.1086   -0.2176   -1.5941 H         1 <1>         0.1261
      4 N4         -0.6352    1.0864   -0.1296 N.pl3     1 <1>        -0.3745
      5 C5          0.6120    1.3823    0.4165 C.ar      1 <1>        -0.0048
      6 N6          0.7456    2.4377    1.2081 N.ar      1 <1>        -0.3487
      7 C7          1.8982    2.7686    1.7544 C.ar      1 <1>         0.0326
      8 C8          3.0352    2.0103    1.5166 C.ar      1 <1>         0.0973
      9 O9          4.3190    2.0933    1.9201 O.3       1 <1>        -0.2845
     10 N10         5.0619    1.0299    1.3578 N.2       1 <1>        -0.2198
     11 C11         4.2790    0.2899    0.6180 C.2       1 <1>         0.0562
     12 C12         4.6721   -0.9194   -0.1427 C.ar      1 <1>        -0.0063
     13 C13         3.7786   -1.9812   -0.2768 C.ar      1 <1>        -0.0532
     14 C14         4.1454   -3.1068   -0.9853 C.ar      1 <1>        -0.0399
     15 C15         5.4023   -3.1863   -1.5664 C.ar      1 <1>         0.0391
     16 O16         5.9950   -4.1705   -2.3029 O.3       1 <1>        -0.3724
     17 C17         7.1057   -3.5388   -2.9666 C.3       1 <1>         0.1161
     18 O18         7.4532   -2.4497   -2.0913 O.3       1 <1>        -0.3748
     19 C19         6.3000   -2.1269   -1.4358 C.ar      1 <1>         0.0432
     20 C20         5.9346   -0.9953   -0.7309 C.ar      1 <1>        -0.0216
     21 C21         2.9349    0.8825    0.6821 C.ar      1 <1>         0.0144
     22 C22         1.6956    0.5656    0.1292 C.ar      1 <1>        -0.0175
     23 C23        -1.9710    0.1350   -1.9183 C.ar      1 <1>        -0.0875
     24 C24        -3.1203    0.7361   -1.4397 C.ar      1 <1>        -0.0962
     25 C25        -4.1987    0.9338   -2.2815 C.ar      1 <1>        -0.1039
     26 C26        -4.1278    0.5311   -3.6020 C.ar      1 <1>        -0.1083
     27 C27        -2.9783   -0.0691   -4.0807 C.ar      1 <1>        -0.1060
     28 C28        -1.8983   -0.2630   -3.2400 C.ar      1 <1>        -0.0977
     29 H29        -1.9414   -1.1889    0.4483 H         1 <1>         0.0429
     30 H30        -1.1566   -2.1942   -0.7934 H         1 <1>         0.0500
     31 H31        -0.1872   -1.4819    0.5184 H         1 <1>         0.0429
     32 H32        -1.3976    1.6531    0.0670 H         1 <1>         0.3005
     33 H33         1.9583    3.6378    2.3925 H         1 <1>         0.2452
     34 H34         2.7990   -1.9228    0.1743 H         1 <1>         0.1539
     35 H35         3.4521   -3.9285   -1.0874 H         1 <1>         0.1516
     36 H36         7.9397   -4.2338   -3.0628 H         1 <1>         0.2083
     37 H37         6.8041   -3.1630   -3.9443 H         1 <1>         0.1720
     38 H38         6.6269   -0.1723   -0.6332 H         1 <1>         0.1556
     39 H39         1.5819   -0.2961   -0.5118 H         1 <1>         0.1466
     40 H40        -3.1756    1.0507   -0.4081 H         1 <1>         0.1165
     41 H41        -5.0969    1.4027   -1.9075 H         1 <1>         0.1222
     42 H42        -4.9707    0.6849   -4.2595 H         1 <1>         0.1120
     43 H43        -2.9230   -0.3841   -5.1124 H         1 <1>         0.1196
     44 H44        -1.0002   -0.7319   -3.6141 H         1 <1>         0.1161
@<TRIPOS>BOND
     1    1    2 1
     2    1   29 1
     3    1   30 1
     4    1   31 1
     5    2    3 1
     6    2    4 1
     7    2   23 1
     8    4    5 1
     9    4   32 1
    10    5   22 ar
    11    5    6 ar
    12    6    7 ar
    13    7    8 ar
    14    7   33 1
    15    8   21 ar
    16    8    9 1
    17    9   10 1
    18   10   11 2
    19   11   12 1
    20   11   21 1
    21   12   20 ar
    22   12   13 ar
    23   13   14 ar
    24   13   34 1
    25   14   15 ar
    26   14   35 1
    27   15   19 ar
    28   15   16 1
    29   16   17 1
    30   17   18 1
    31   17   36 1
    32   17   37 1
    33   18   19 1
    34   19   20 ar
    35   20   38 1
    36   21   22 ar
    37   22   39 1
    38   23   28 ar
    39   23   24 ar
    40   24   25 ar
    41   24   40 1
    42   25   26 ar
    43   25   41 1
    44   26   27 ar
    45   26   42 1
    46   27   28 ar
    47   27   43 1
    48   28   44 1
@<TRIPOS>Similarity
1.0942
@<TRIPOS>ShapeSim
0.8048
@<TRIPOS>PharmSim
0.2894
# END
# Name:		O=C1NC2=CC=C(S(=O)(O)=O)C=C2/C1=C3NC(C=CC=C4)=C4C/3=O
# Created and modified by SHAFTS on Thu Mar 11 05:28:35 2021

# 

@<TRIPOS>MOLECULE
O=C1NC2=CC=C(S(=O)(O)=O)C=C2/C1=C3NC(C=CC=C4)=C4C/3=O
   32    35     0
SMALL
USER_CHARGE


@<TRIPOS>ATOM
      1 O1          0.1696    2.2388    1.8663 O.2       1 <1>        -0.5300
      2 C2          0.9804    1.4245    1.4687 C.2       1 <1>         0.5600
      3 N3          2.1853    1.1776    2.0108 N.am      1 <1>        -0.6600
      4 C4          2.8624    0.1850    1.3110 C.ar      1 <1>         0.1400
      5 C5          4.1138   -0.3883    1.5007 C.ar      1 <1>        -0.1700
      6 C6          4.5609   -1.3770    0.6459 C.ar      1 <1>        -0.0300
      7 C7          3.7727   -1.8095   -0.4074 C.ar      1 <1>        -0.6800
      8 S8          4.3612   -3.0724   -1.4859 S.o2      1 <1>         2.7100
      9 O9          3.7613   -2.8253   -2.7878 O.co2     1 <1>        -0.5000
     10 O10         5.8105   -2.9522   -1.5210 O.co2     1 <1>        -0.5000
     11 O11         3.9323   -4.3416   -0.9192 O.co2     1 <1>        -0.5000
     12 C12         2.5264   -1.2530   -0.6132 C.ar      1 <1>        -0.0100
     13 C13         2.0662   -0.2555    0.2428 C.ar      1 <1>        -0.0800
     14 C14         0.8134    0.5243    0.3055 C.2       1 <1>        -0.2600
     15 C15        -0.2752    0.4348   -0.5382 C.2       1 <1>         0.1900
     16 N16        -1.3520    1.2901   -0.5724 N.pl3     1 <1>        -0.6000
     17 C17        -2.2611    0.9004   -1.5454 C.ar      1 <1>         0.1900
     18 C18        -3.4777    1.4488   -1.9381 C.ar      1 <1>        -0.1800
     19 C19        -4.2086    0.8617   -2.9515 C.ar      1 <1>        -0.0600
     20 C20        -3.7437   -0.2767   -3.5899 C.ar      1 <1>        -0.2300
     21 C21        -2.5404   -0.8372   -3.2166 C.ar      1 <1>         0.0000
     22 C22        -1.7922   -0.2532   -2.1938 C.ar      1 <1>        -0.3100
     23 C23        -0.4966   -0.5968   -1.5791 C.2       1 <1>         0.3900
     24 O24         0.2327   -1.5276   -1.8639 O.2       1 <1>        -0.4100
     25 H25         2.5377    1.6341    2.7907 H         1 <1>         0.4000
     26 H26         4.7386   -0.0598    2.3181 H         1 <1>         0.1100
     27 H27         5.5350   -1.8170    0.8004 H         1 <1>         0.1300
     28 H28         1.9111   -1.5894   -1.4345 H         1 <1>         0.1700
     29 H29        -3.8516    2.3360   -1.4488 H         1 <1>         0.1100
     30 H30        -5.1524    1.2940   -3.2494 H         1 <1>         0.1100
     31 H31        -4.3252   -0.7263   -4.3812 H         1 <1>         0.1100
     32 H32        -2.1783   -1.7248   -3.7141 H         1 <1>         0.1100
@<TRIPOS>BOND
     1    1    2 2
     2    2   14 1
     3    2    3 am
     4    3    4 1
     5    3   25 1
     6    4   13 ar
     7    4    5 ar
     8    5    6 ar
     9    5   26 1
    10    6    7 ar
    11    6   27 1
    12    7    8 1
    13    7   12 ar
    14    8    9 ar
    15    8   10 ar
    16    8   11 ar
    17   12   13 ar
    18   12   28 1
    19   13   14 1
    20   14   15 2
    21   15   23 1
    22   15   16 1
    23   16   17 1
    24   17   22 ar
    25   17   18 ar
    26   18   19 ar
    27   18   29 1
    28   19   20 ar
    29   19   30 1
    30   20   21 ar
    31   20   31 1
    32   21   22 ar
    33   21   32 1
    34   22   23 1
    35   23   24 2
@<TRIPOS>Similarity
1.0934
@<TRIPOS>ShapeSim
0.7896
@<TRIPOS>PharmSim
0.3038
# END
# Name:		O=C(C1=CC=CC=C1N/2)C2=C3C(NC4=C\3C=C(S(=O)(O)=O)C=C4)=O
# Created and modified by SHAFTS on Thu Mar 11 05:28:35 2021

# 

@<TRIPOS>MOLECULE
O=C(C1=CC=CC=C1N/2)C2=C3C(NC4=C\3C=C(S(=O)(O)=O)C=C4)=O
   32    35     0
SMALL
USER_CHARGE


@<TRIPOS>ATOM
      1 O1          0.1696    2.2388    1.8663 O.2       1 <1>        -0.5300
      2 C2          0.9804    1.4245    1.4687 C.2       1 <1>         0.5600
      3 N3          2.1853    1.1776    2.0108 N.am      1 <1>        -0.6600
      4 C4          2.8624    0.1850    1.3110 C.ar      1 <1>         0.1400
      5 C5          4.1138   -0.3883    1.5007 C.ar      1 <1>        -0.1700
      6 C6          4.5609   -1.3770    0.6459 C.ar      1 <1>        -0.0300
      7 C7          3.7727   -1.8095   -0.4074 C.ar      1 <1>        -0.6800
      8 S8          4.3612   -3.0724   -1.4859 S.o2      1 <1>         2.7100
      9 O9          3.7613   -2.8253   -2.7878 O.co2     1 <1>        -0.5000
     10 O10         5.8105   -2.9522   -1.5210 O.co2     1 <1>        -0.5000
     11 O11         3.9323   -4.3416   -0.9192 O.co2     1 <1>        -0.5000
     12 C12         2.5264   -1.2530   -0.6132 C.ar      1 <1>        -0.0100
     13 C13         2.0662   -0.2555    0.2428 C.ar      1 <1>        -0.0800
     14 C14         0.8134    0.5243    0.3055 C.2       1 <1>        -0.2600
     15 C15        -0.2752    0.4348   -0.5382 C.2       1 <1>         0.1900
     16 N16        -1.3520    1.2901   -0.5724 N.pl3     1 <1>        -0.6000
     17 C17        -2.2611    0.9004   -1.5454 C.ar      1 <1>         0.1900
     18 C18        -3.4777    1.4488   -1.9381 C.ar      1 <1>        -0.1800
     19 C19        -4.2086    0.8617   -2.9515 C.ar      1 <1>        -0.0600
     20 C20        -3.7437   -0.2767   -3.5899 C.ar      1 <1>        -0.2300
     21 C21        -2.5404   -0.8372   -3.2166 C.ar      1 <1>         0.0000
     22 C22        -1.7922   -0.2532   -2.1938 C.ar      1 <1>        -0.3100
     23 C23        -0.4966   -0.5968   -1.5791 C.2       1 <1>         0.3900
     24 O24         0.2327   -1.5276   -1.8639 O.2       1 <1>        -0.4100
     25 H25         2.5377    1.6341    2.7907 H         1 <1>         0.4000
     26 H26         4.7386   -0.0598    2.3181 H         1 <1>         0.1100
     27 H27         5.5350   -1.8170    0.8004 H         1 <1>         0.1300
     28 H28         1.9111   -1.5894   -1.4345 H         1 <1>         0.1700
     29 H29        -3.8516    2.3360   -1.4488 H         1 <1>         0.1100
     30 H30        -5.1524    1.2940   -3.2494 H         1 <1>         0.1100
     31 H31        -4.3252   -0.7263   -4.3812 H         1 <1>         0.1100
     32 H32        -2.1783   -1.7248   -3.7141 H         1 <1>         0.1100
@<TRIPOS>BOND
     1    1    2 2
     2    2   14 1
     3    2    3 am
     4    3    4 1
     5    3   25 1
     6    4   13 ar
     7    4    5 ar
     8    5    6 ar
     9    5   26 1
    10    6    7 ar
    11    6   27 1
    12    7    8 1
    13    7   12 ar
    14    8    9 ar
    15    8   10 ar
    16    8   11 ar
    17   12   13 ar
    18   12   28 1
    19   13   14 1
    20   14   15 2
    21   15   23 1
    22   15   16 1
    23   16   17 1
    24   17   22 ar
    25   17   18 ar
    26   18   19 ar
    27   18   29 1
    28   19   20 ar
    29   19   30 1
    30   20   21 ar
    31   20   31 1
    32   21   22 ar
    33   21   32 1
    34   22   23 1
    35   23   24 2
@<TRIPOS>Similarity
1.0934
@<TRIPOS>ShapeSim
0.7896
@<TRIPOS>PharmSim
0.3038
# END
# Name:		O=C(N1)/C(C2=C1C=CC(S(=O)(O)=O)=C2)=C3NC(C=CC=C4)=C4C/3=O
# Created and modified by SHAFTS on Thu Mar 11 05:28:35 2021

# 

@<TRIPOS>MOLECULE
O=C(N1)/C(C2=C1C=CC(S(=O)(O)=O)=C2)=C3NC(C=CC=C4)=C4C/3=O
   32    35     0
SMALL
USER_CHARGE


@<TRIPOS>ATOM
      1 O1          0.1696    2.2388    1.8663 O.2       1 <1>        -0.5300
      2 C2          0.9804    1.4245    1.4687 C.2       1 <1>         0.5600
      3 N3          2.1853    1.1776    2.0108 N.am      1 <1>        -0.6600
      4 C4          2.8624    0.1850    1.3110 C.ar      1 <1>         0.1400
      5 C5          4.1138   -0.3883    1.5007 C.ar      1 <1>        -0.1700
      6 C6          4.5609   -1.3770    0.6459 C.ar      1 <1>        -0.0300
      7 C7          3.7727   -1.8095   -0.4074 C.ar      1 <1>        -0.6800
      8 S8          4.3612   -3.0724   -1.4859 S.o2      1 <1>         2.7100
      9 O9          3.7613   -2.8253   -2.7878 O.co2     1 <1>        -0.5000
     10 O10         5.8105   -2.9522   -1.5210 O.co2     1 <1>        -0.5000
     11 O11         3.9323   -4.3416   -0.9192 O.co2     1 <1>        -0.5000
     12 C12         2.5264   -1.2530   -0.6132 C.ar      1 <1>        -0.0100
     13 C13         2.0662   -0.2555    0.2428 C.ar      1 <1>        -0.0800
     14 C14         0.8134    0.5243    0.3055 C.2       1 <1>        -0.2600
     15 C15        -0.2752    0.4348   -0.5382 C.2       1 <1>         0.1900
     16 N16        -1.3520    1.2901   -0.5724 N.pl3     1 <1>        -0.6000
     17 C17        -2.2611    0.9004   -1.5454 C.ar      1 <1>         0.1900
     18 C18        -3.4777    1.4488   -1.9381 C.ar      1 <1>        -0.1800
     19 C19        -4.2086    0.8617   -2.9515 C.ar      1 <1>        -0.0600
     20 C20        -3.7437   -0.2767   -3.5899 C.ar      1 <1>        -0.2300
     21 C21        -2.5404   -0.8372   -3.2166 C.ar      1 <1>         0.0000
     22 C22        -1.7922   -0.2532   -2.1938 C.ar      1 <1>        -0.3100
     23 C23        -0.4966   -0.5968   -1.5791 C.2       1 <1>         0.3900
     24 O24         0.2327   -1.5276   -1.8639 O.2       1 <1>        -0.4100
     25 H25         2.5377    1.6341    2.7907 H         1 <1>         0.4000
     26 H26         4.7386   -0.0598    2.3181 H         1 <1>         0.1100
     27 H27         5.5350   -1.8170    0.8004 H         1 <1>         0.1300
     28 H28         1.9111   -1.5894   -1.4345 H         1 <1>         0.1700
     29 H29        -3.8516    2.3360   -1.4488 H         1 <1>         0.1100
     30 H30        -5.1524    1.2940   -3.2494 H         1 <1>         0.1100
     31 H31        -4.3252   -0.7263   -4.3812 H         1 <1>         0.1100
     32 H32        -2.1783   -1.7248   -3.7141 H         1 <1>         0.1100
@<TRIPOS>BOND
     1    1    2 2
     2    2   14 1
     3    2    3 am
     4    3    4 1
     5    3   25 1
     6    4   13 ar
     7    4    5 ar
     8    5    6 ar
     9    5   26 1
    10    6    7 ar
    11    6   27 1
    12    7    8 1
    13    7   12 ar
    14    8    9 ar
    15    8   10 ar
    16    8   11 ar
    17   12   13 ar
    18   12   28 1
    19   13   14 1
    20   14   15 2
    21   15   23 1
    22   15   16 1
    23   16   17 1
    24   17   22 ar
    25   17   18 ar
    26   18   19 ar
    27   18   29 1
    28   19   20 ar
    29   19   30 1
    30   20   21 ar
    31   20   31 1
    32   21   22 ar
    33   21   32 1
    34   22   23 1
    35   23   24 2
@<TRIPOS>Similarity
1.0934
@<TRIPOS>ShapeSim
0.7896
@<TRIPOS>PharmSim
0.3038
# END
# Name:		CC(C)N1C2=NC=NC(=C2C(=N1)C3=CC4=C(C=C3)OC(=N4)N)N
# Created and modified by SHAFTS on Thu Mar 11 05:28:35 2021

# 

@<TRIPOS>MOLECULE
CC(C)N1C2=NC=NC(=C2C(=N1)C3=CC4=C(C=C3)OC(=N4)N)N
   38    41     0
SMALL
USER_CHARGE


@<TRIPOS>ATOM
      1 C1          3.6539    2.7937    2.3339 C.3       1 <1>        -0.0326
      2 C2          3.7108    1.3077    2.6935 C.3       1 <1>         0.0077
      3 C3          2.9309    1.0659    3.9875 C.3       1 <1>        -0.0326
      4 N4          3.1163    0.5202    1.6107 N.pl3     1 <1>        -0.2826
      5 N5          1.8002    0.6410    1.1522 N.2       1 <1>        -0.2930
      6 C6          1.5888   -0.2079    0.1744 C.2       1 <1>         0.0493
      7 C7          0.3217   -0.3865   -0.5747 C.ar      1 <1>        -0.0082
      8 C8         -0.1598   -1.6723   -0.8340 C.ar      1 <1>        -0.0566
      9 C9         -1.3364   -1.8477   -1.5296 C.ar      1 <1>        -0.0441
     10 C10        -2.0501   -0.7464   -1.9761 C.ar      1 <1>         0.0554
     11 O11        -3.2055   -0.5999   -2.6655 O.3       1 <1>        -0.3055
     12 C12        -3.4340    0.7151   -2.8281 C.2       1 <1>         0.1064
     13 N13        -4.5190    1.2516   -3.4833 N.pl3     1 <1>        -0.3244
     14 N14        -2.4750    1.4104   -2.2725 N.2       1 <1>        -0.3462
     15 C15        -1.5752    0.5499   -1.7204 C.ar      1 <1>         0.0041
     16 C16        -0.3880    0.7255   -1.0129 C.ar      1 <1>        -0.0227
     17 C17         2.8336   -0.9451   -0.0406 C.ar      1 <1>         0.0807
     18 C18         3.2470   -1.9622   -0.9163 C.ar      1 <1>         0.0056
     19 N19         2.3768   -2.4885   -1.8514 N.pl3     1 <1>        -0.3614
     20 N20         4.4969   -2.4057   -0.8233 N.ar      1 <1>        -0.3430
     21 C21         5.3335   -1.9058    0.0686 C.ar      1 <1>         0.0422
     22 N22         4.9910   -0.9538    0.9086 N.ar      1 <1>        -0.3395
     23 C23         3.7615   -0.4400    0.8895 C.ar      1 <1>         0.0536
     24 H24         4.0962    3.3798    3.1395 H         1 <1>         0.0593
     25 H25         4.2095    2.9660    1.4121 H         1 <1>         0.0450
     26 H26         2.6156    3.0942    2.1939 H         1 <1>         0.0521
     27 H27         4.7492    1.0072    2.8336 H         1 <1>         0.1418
     28 H28         3.3733    1.6519    4.7931 H         1 <1>         0.0593
     29 H29         1.8926    1.3664    3.8475 H         1 <1>         0.0521
     30 H30         2.9715    0.0073    4.2436 H         1 <1>         0.0450
     31 H31         0.3932   -2.5331   -0.4879 H         1 <1>         0.1456
     32 H32        -1.7028   -2.8443   -1.7272 H         1 <1>         0.1478
     33 H33        -5.1898    0.6673   -3.8699 H         1 <1>         0.3009
     34 H34        -4.6130    2.2142   -3.5584 H         1 <1>         0.3165
     35 H35        -0.0198    1.7199   -0.8082 H         1 <1>         0.1620
     36 H36         1.5585   -2.0167   -2.0721 H         1 <1>         0.2811
     37 H37         2.5840   -3.3299   -2.2872 H         1 <1>         0.2811
     38 H38         6.3400   -2.2953    0.1099 H         1 <1>         0.3176
@<TRIPOS>BOND
     1    1    2 1
     2    1   24 1
     3    1   25 1
     4    1   26 1
     5    2    3 1
     6    2    4 1
     7    2   27 1
     8    3   28 1
     9    3   29 1
    10    3   30 1
    11    4   23 1
    12    4    5 1
    13    5    6 2
    14    6    7 1
    15    6   17 1
    16    7   16 ar
    17    7    8 ar
    18    8    9 ar
    19    8   31 1
    20    9   10 ar
    21    9   32 1
    22   10   15 ar
    23   10   11 1
    24   11   12 1
    25   12   13 1
    26   12   14 2
    27   13   33 1
    28   13   34 1
    29   14   15 1
    30   15   16 ar
    31   16   35 1
    32   17   23 ar
    33   17   18 ar
    34   18   19 1
    35   18   20 ar
    36   19   36 1
    37   19   37 1
    38   20   21 ar
    39   21   22 ar
    40   21   38 1
    41   22   23 ar
@<TRIPOS>Similarity
1.0926
@<TRIPOS>ShapeSim
0.7908
@<TRIPOS>PharmSim
0.3018
# END
# Name:		NC1=NC2=CC(C(F)(F)F)=CC=C2S1
# Created and modified by SHAFTS on Thu Mar 11 05:28:35 2021

# 

@<TRIPOS>MOLECULE
NC1=NC2=CC(C(F)(F)F)=CC=C2S1
   19    20     0
SMALL
USER_CHARGE


@<TRIPOS>ATOM
      1 N1          6.0497   -3.1500   -1.7405 N.pl3     1 <1>        -0.3566
      2 C2          5.0630   -2.4566   -1.0696 C.2       1 <1>         0.0462
      3 N3          5.2486   -1.3626   -0.4139 N.2       1 <1>        -0.3738
      4 C4          4.1821   -0.8014    0.1907 C.ar      1 <1>        -0.0202
      5 C5          4.1236    0.3799    0.9593 C.ar      1 <1>        -0.0247
      6 C6          2.9343    0.7981    1.5017 C.ar      1 <1>         0.0467
      7 C7          2.8906    2.0628    2.3202 C.3       1 <1>         0.3548
      8 F8          2.6249    3.1513    1.4827 F         1 <1>        -0.1859
      9 F9          1.8826    1.9594    3.2847 F         1 <1>        -0.1859
     10 F10         4.1240    2.2514    2.9530 F         1 <1>        -0.1859
     11 C11         1.7724    0.0678    1.3031 C.ar      1 <1>        -0.0621
     12 C12         1.8057   -1.0891    0.5558 C.ar      1 <1>        -0.0671
     13 C13         3.0034   -1.5284   -0.0015 C.ar      1 <1>         0.0128
     14 S14         3.3734   -2.9362   -0.9943 S.3       1 <1>        -0.0331
     15 H15         5.8308   -3.9665   -2.2163 H         1 <1>         0.2907
     16 H16         6.9614   -2.8187   -1.7397 H         1 <1>         0.2907
     17 H17         5.0206    0.9589    1.1224 H         1 <1>         0.1690
     18 H18         0.8416    0.4056    1.7343 H         1 <1>         0.1482
     19 H19         0.9000   -1.6568    0.4018 H         1 <1>         0.1462
@<TRIPOS>BOND
     1    1    2 1
     2    1   15 1
     3    1   16 1
     4    2   14 1
     5    2    3 2
     6    3    4 1
     7    4   13 ar
     8    4    5 ar
     9    5    6 ar
    10    5   17 1
    11    6    7 1
    12    6   11 ar
    13    7    8 1
    14    7    9 1
    15    7   10 1
    16   11   12 ar
    17   11   18 1
    18   12   13 ar
    19   12   19 1
    20   13   14 1
@<TRIPOS>Similarity
1.0868
@<TRIPOS>ShapeSim
0.6669
@<TRIPOS>PharmSim
0.4199
# END
# Name:		NC1=NC2=CC=C(C(F)(F)F)C=C2S1
# Created and modified by SHAFTS on Thu Mar 11 05:28:35 2021

# 

@<TRIPOS>MOLECULE
NC1=NC2=CC=C(C(F)(F)F)C=C2S1
   19    20     0
SMALL
USER_CHARGE


@<TRIPOS>ATOM
      1 N1          6.0497   -3.1500   -1.7405 N.pl3     1 <1>        -0.3533
      2 C2          5.0630   -2.4566   -1.0696 C.2       1 <1>         0.0496
      3 N3          5.2484   -1.3622   -0.4144 N.2       1 <1>        -0.3698
      4 C4          4.1820   -0.8010    0.1902 C.ar      1 <1>        -0.0222
      5 C5          4.1233    0.3806    0.9583 C.ar      1 <1>        -0.0415
      6 C6          2.9340    0.7987    1.5009 C.ar      1 <1>        -0.0552
      7 C7          1.7725    0.0674    1.3037 C.ar      1 <1>         0.0367
      8 C8          0.4738    0.5387    1.9057 C.3       1 <1>         0.3474
      9 F9          0.6914    1.7261    2.6128 F         1 <1>        -0.1881
     10 F10        -0.4569    0.7668    0.8865 F         1 <1>        -0.1936
     11 F11        -0.0186   -0.4392    2.7765 F         1 <1>        -0.1936
     12 C12         1.8060   -1.0898    0.5570 C.ar      1 <1>        -0.0520
     13 C13         3.0035   -1.5286   -0.0013 C.ar      1 <1>         0.0156
     14 S14         3.3736   -2.9367   -0.9936 S.3       1 <1>        -0.0331
     15 H15         5.8308   -3.9666   -2.2161 H         1 <1>         0.2931
     16 H16         6.9613   -2.8186   -1.7399 H         1 <1>         0.2931
     17 H17         5.0202    0.9599    1.1208 H         1 <1>         0.1578
     18 H18         2.9027    1.7053    2.0870 H         1 <1>         0.1540
     19 H19         0.9005   -1.6583    0.4042 H         1 <1>         0.1551
@<TRIPOS>BOND
     1    1    2 1
     2    1   15 1
     3    1   16 1
     4    2   14 1
     5    2    3 2
     6    3    4 1
     7    4   13 ar
     8    4    5 ar
     9    5    6 ar
    10    5   17 1
    11    6    7 ar
    12    6   18 1
    13    7    8 1
    14    7   12 ar
    15    8    9 1
    16    8   10 1
    17    8   11 1
    18   12   13 ar
    19   12   19 1
    20   13   14 1
@<TRIPOS>Similarity
1.0863
@<TRIPOS>ShapeSim
0.6664
@<TRIPOS>PharmSim
0.4199
# END
# Name:		CC(CC1=CC=CC=C1)NCCC(C2=CC=CC=C2)C3=CC=CC=C3
# Created and modified by SHAFTS on Thu Mar 11 05:28:35 2021

# 

@<TRIPOS>MOLECULE
CC(CC1=CC=CC=C1)NCCC(C2=CC=CC=C2)C3=CC=CC=C3
   53    55     0
SMALL
USER_CHARGE


@<TRIPOS>ATOM
      1 C1         -1.5784   -1.1555    2.0639 C.3       1 <1>        -0.0677
      2 C2         -1.4134   -0.7909    0.5871 C.3       1 <1>        -0.1199
      3 H3         -1.0858   -1.6690    0.0305 H         1 <1>         0.0968
      4 C4         -2.7521   -0.3036    0.0294 C.3       1 <1>        -0.0558
      5 C5         -2.6208   -0.0613   -1.4522 C.ar      1 <1>        -0.1291
      6 C6         -2.2319    1.1808   -1.9177 C.ar      1 <1>        -0.1181
      7 C7         -2.1115    1.4030   -3.2767 C.ar      1 <1>        -0.1071
      8 C8         -2.3795    0.3829   -4.1703 C.ar      1 <1>        -0.1014
      9 C9         -2.7675   -0.8595   -3.7048 C.ar      1 <1>        -0.1022
     10 C10        -2.8838   -1.0829   -2.3456 C.ar      1 <1>        -0.1101
     11 N11        -0.4108    0.2747    0.4548 N.4       1 <1>         0.4240
     12 H12        -0.3612    0.5722   -0.5080 H         1 <1>         0.1537
     13 H13        -0.6730    1.0571    1.0356 H         1 <1>         0.1461
     14 C14         0.9012   -0.2320    0.8791 C.3       1 <1>        -0.1051
     15 C15         1.9454    0.8778    0.7413 C.3       1 <1>        -0.0563
     16 C16         3.3118    0.3501    1.1831 C.3       1 <1>        -0.0264
     17 C17         3.7591   -0.7374    0.2405 C.ar      1 <1>        -0.1043
     18 C18         4.1488   -1.9667    0.7385 C.ar      1 <1>        -0.1016
     19 C19         4.5591   -2.9641   -0.1261 C.ar      1 <1>        -0.1022
     20 C20         4.5792   -2.7324   -1.4888 C.ar      1 <1>        -0.1032
     21 C21         4.1886   -1.5035   -1.9869 C.ar      1 <1>        -0.1055
     22 C22         3.7743   -0.5074   -1.1225 C.ar      1 <1>        -0.1040
     23 C23         4.3147    1.4748    1.1645 C.ar      1 <1>        -0.1047
     24 C24         4.4573    2.2550    0.0324 C.ar      1 <1>        -0.1053
     25 C25         5.3772    3.2867    0.0154 C.ar      1 <1>        -0.1062
     26 C26         6.1541    3.5385    1.1306 C.ar      1 <1>        -0.1045
     27 C27         6.0108    2.7589    2.2630 C.ar      1 <1>        -0.1026
     28 C28         5.0879    1.7299    2.2816 C.ar      1 <1>        -0.1017
     29 H29        -0.6246   -1.5025    2.4611 H         1 <1>         0.0488
     30 H30        -1.9059   -0.2773    2.6204 H         1 <1>         0.0488
     31 H31        -2.3223   -1.9461    2.1620 H         1 <1>         0.0702
     32 H32        -3.5168   -1.0596    0.2076 H         1 <1>         0.0952
     33 H33        -3.0362    0.6245    0.5255 H         1 <1>         0.0809
     34 H34        -2.0225    1.9778   -1.2196 H         1 <1>         0.1062
     35 H35        -1.8084    2.3737   -3.6404 H         1 <1>         0.1216
     36 H36        -2.2860    0.5567   -5.2321 H         1 <1>         0.1251
     37 H37        -2.9773   -1.6564   -4.4029 H         1 <1>         0.1230
     38 H38        -3.1870   -2.0537   -1.9818 H         1 <1>         0.1213
     39 H39         0.8476   -0.5534    1.9192 H         1 <1>         0.0935
     40 H40         1.1844   -1.0773    0.2518 H         1 <1>         0.0864
     41 H41         1.9990    1.1992   -0.2989 H         1 <1>         0.0653
     42 H42         1.6621    1.7230    1.3686 H         1 <1>         0.0724
     43 H43         3.2365   -0.0529    2.1931 H         1 <1>         0.1035
     44 H44         4.1329   -2.1476    1.8031 H         1 <1>         0.1159
     45 H45         4.8641   -3.9243    0.2630 H         1 <1>         0.1226
     46 H46         4.9004   -3.5116   -2.1643 H         1 <1>         0.1225
     47 H47         4.2047   -1.3224   -3.0515 H         1 <1>         0.1146
     48 H48         3.4692    0.4526   -1.5116 H         1 <1>         0.1133
     49 H49         3.8502    2.0583   -0.8390 H         1 <1>         0.1129
     50 H50         5.4891    3.8958   -0.8695 H         1 <1>         0.1196
     51 H51         6.8732    4.3441    1.1170 H         1 <1>         0.1221
     52 H52         6.6181    2.9553    3.1343 H         1 <1>         0.1226
     53 H53         4.9760    1.1208    3.1665 H         1 <1>         0.1159
@<TRIPOS>BOND
     1    1    2 1
     2    1   29 1
     3    1   30 1
     4    1   31 1
     5    2    3 1
     6    2    4 1
     7    2   11 1
     8    4    5 1
     9    4   32 1
    10    4   33 1
    11    5   10 ar
    12    5    6 ar
    13    6    7 ar
    14    6   34 1
    15    7    8 ar
    16    7   35 1
    17    8    9 ar
    18    8   36 1
    19    9   10 ar
    20    9   37 1
    21   10   38 1
    22   11   12 1
    23   11   13 1
    24   11   14 1
    25   14   15 1
    26   14   39 1
    27   14   40 1
    28   15   16 1
    29   15   41 1
    30   15   42 1
    31   16   17 1
    32   16   23 1
    33   16   43 1
    34   17   22 ar
    35   17   18 ar
    36   18   19 ar
    37   18   44 1
    38   19   20 ar
    39   19   45 1
    40   20   21 ar
    41   20   46 1
    42   21   22 ar
    43   21   47 1
    44   22   48 1
    45   23   28 ar
    46   23   24 ar
    47   24   25 ar
    48   24   49 1
    49   25   26 ar
    50   25   50 1
    51   26   27 ar
    52   26   51 1
    53   27   28 ar
    54   27   52 1
    55   28   53 1
@<TRIPOS>Similarity
1.0861
@<TRIPOS>ShapeSim
0.7441
@<TRIPOS>PharmSim
0.3421
# END
# Name:		CCN1C2=C(C=CC(=C2)OC)SC1=CC(=O)C
# Created and modified by SHAFTS on Thu Mar 11 05:28:35 2021

# 

@<TRIPOS>MOLECULE
CCN1C2=C(C=CC(=C2)OC)SC1=CC(=O)C
   32    33     0
SMALL
USER_CHARGE


@<TRIPOS>ATOM
      1 C1         -0.0844    0.5355    0.3092 C.3       1 <1>        -0.0414
      2 C2          0.7004   -0.1663    1.4194 C.3       1 <1>        -0.0140
      3 N3          2.1365   -0.0197    1.1701 N.pl3     1 <1>        -0.3553
      4 C4          2.8242   -0.9502    0.4149 C.ar      1 <1>        -0.0322
      5 C5          2.3139   -2.1054   -0.1978 C.ar      1 <1>        -0.0211
      6 C6          3.1374   -2.9400   -0.9244 C.ar      1 <1>         0.0021
      7 O7          2.6201   -4.0533   -1.5089 O.3       1 <1>        -0.4100
      8 C8          3.5237   -4.8776   -2.2479 C.3       1 <1>         0.0272
      9 C9          4.4893   -2.6549   -1.0657 C.ar      1 <1>        -0.0551
     10 C10         5.0093   -1.5227   -0.4703 C.ar      1 <1>        -0.0722
     11 C11         4.1852   -0.6835    0.2598 C.ar      1 <1>         0.0137
     12 S12         4.5016    0.8188    1.1390 S.3       1 <1>        -0.0400
     13 C13         2.8257    1.0358    1.6694 C.2       1 <1>         0.0356
     14 C14         2.3215    2.0723    2.4445 C.2       1 <1>        -0.0052
     15 C15         3.1633    3.0795    2.8859 C.2       1 <1>         0.0316
     16 C16         2.6163    4.2042    3.7268 C.3       1 <1>         0.0211
     17 O17         4.3456    3.0565    2.5946 O.2       1 <1>        -0.5049
     18 H18         0.1755    1.5940    0.2939 H         1 <1>         0.0475
     19 H19         0.1653    0.0861   -0.6519 H         1 <1>         0.0403
     20 H20        -1.1529    0.4264    0.4947 H         1 <1>         0.0546
     21 H21         0.4507    0.2831    2.3806 H         1 <1>         0.1196
     22 H22         0.4404   -1.2248    1.4348 H         1 <1>         0.1124
     23 H23         1.2651   -2.3435   -0.0991 H         1 <1>         0.1403
     24 H24         4.3137   -5.2340   -1.5869 H         1 <1>         0.0929
     25 H25         2.9835   -5.7295   -2.6608 H         1 <1>         0.1219
     26 H26         3.9632   -4.2979   -3.0597 H         1 <1>         0.0929
     27 H27         5.1283   -3.3132   -1.6357 H         1 <1>         0.1225
     28 H28         6.0592   -1.2918   -0.5740 H         1 <1>         0.1520
     29 H29         1.2730    2.0929    2.7029 H         1 <1>         0.1085
     30 H30         2.6838    3.9356    4.7811 H         1 <1>         0.0764
     31 H31         3.1960    5.1091    3.5447 H         1 <1>         0.0692
     32 H32         1.5737    4.3813    3.4630 H         1 <1>         0.0692
@<TRIPOS>BOND
     1    1    2 1
     2    1   18 1
     3    1   19 1
     4    1   20 1
     5    2    3 1
     6    2   21 1
     7    2   22 1
     8    3   13 1
     9    3    4 1
    10    4   11 ar
    11    4    5 ar
    12    5    6 ar
    13    5   23 1
    14    6    7 1
    15    6    9 ar
    16    7    8 1
    17    8   24 1
    18    8   25 1
    19    8   26 1
    20    9   10 ar
    21    9   27 1
    22   10   11 ar
    23   10   28 1
    24   11   12 1
    25   12   13 1
    26   13   14 2
    27   14   15 1
    28   14   29 1
    29   15   16 1
    30   15   17 2
    31   16   30 1
    32   16   31 1
    33   16   32 1
@<TRIPOS>Similarity
1.0856
@<TRIPOS>ShapeSim
0.6704
@<TRIPOS>PharmSim
0.4152
# END
# Name:		ClC1=CC2=C(CN(CC3=CC=CS3)CCN(C)C)C=CN=C2C=C1
# Created and modified by SHAFTS on Thu Mar 11 05:28:35 2021

# 

@<TRIPOS>MOLECULE
ClC1=CC2=C(CN(CC3=CC=CS3)CCN(C)C)C=CN=C2C=C1
   47    49     0
SMALL
USER_CHARGE


@<TRIPOS>ATOM
      1 C1          0.5541   -4.1861   -5.9491 C.3       1 <1>        -0.0918
      2 N2          0.7995   -2.8935   -5.2958 N.4       1 <1>         0.4091
      3 H3          1.7883   -2.6926   -5.3083 H         1 <1>         0.1643
      4 C4          0.0759   -1.8363   -6.0147 C.3       1 <1>        -0.0902
      5 C5          0.3291   -2.9504   -3.9054 C.3       1 <1>        -0.1216
      6 C6          0.6964   -1.6494   -3.1890 C.3       1 <1>        -0.1823
      7 N7          0.3453   -1.7577   -1.7667 N.3       1 <1>         0.3494
      8 C8         -1.0881   -2.0310   -1.5976 C.3       1 <1>        -0.1473
      9 C9         -1.8855   -0.8445   -2.0744 C.2       1 <1>        -0.0727
     10 C10        -2.3336   -0.6690   -3.3185 C.2       1 <1>        -0.1151
     11 C11        -3.0453    0.5007   -3.5226 C.2       1 <1>        -0.1138
     12 C12        -3.1752    1.2749   -2.4442 C.2       1 <1>        -0.0456
     13 S13        -2.3741    0.5170   -1.0740 S.3       1 <1>        -0.1204
     14 C14         1.1590   -2.7830   -1.1001 C.3       1 <1>        -0.1410
     15 C15         2.5675   -2.2748   -0.9307 C.ar      1 <1>        -0.0936
     16 C16         2.8759   -1.3104    0.0468 C.ar      1 <1>        -0.0331
     17 C17         1.8871   -0.7891    0.8967 C.ar      1 <1>        -0.0491
     18 C18         2.2257    0.1431    1.8308 C.ar      1 <1>        -0.0017
     19 Cl19        1.0029    0.7868    2.8816 Cl        1 <1>        -0.1311
     20 C20         3.5423    0.5866    1.9540 C.ar      1 <1>        -0.0528
     21 C21         4.5245    0.1023    1.1468 C.ar      1 <1>        -0.0411
     22 C22         4.2142   -0.8610    0.1705 C.ar      1 <1>        -0.0158
     23 N23         5.1586   -1.3548   -0.6359 N.ar      1 <1>        -0.3845
     24 C24         4.8750   -2.2534   -1.5476 C.ar      1 <1>        -0.0317
     25 C25         3.5817   -2.7416   -1.7180 C.ar      1 <1>        -0.0606
     26 H26         0.9033   -4.1438   -6.9809 H         1 <1>         0.0835
     27 H27         1.0911   -4.9705   -5.4157 H         1 <1>         0.0764
     28 H28        -0.5139   -4.4032   -5.9356 H         1 <1>         0.0764
     29 H29        -0.9922   -2.0534   -6.0011 H         1 <1>         0.0768
     30 H30         0.2580   -0.8772   -5.5299 H         1 <1>         0.0839
     31 H31         0.4250   -1.7940   -7.0464 H         1 <1>         0.0839
     32 H32        -0.7533   -3.0790   -3.8930 H         1 <1>         0.0798
     33 H33         0.8006   -3.7911   -3.3964 H         1 <1>         0.0798
     34 H34         1.7672   -1.4709   -3.2863 H         1 <1>         0.0653
     35 H35         0.1478   -0.8208   -3.6367 H         1 <1>         0.0725
     36 H36        -1.3615   -2.9104   -2.1806 H         1 <1>         0.0572
     37 H37        -1.3016   -2.2125   -0.5443 H         1 <1>         0.0859
     38 H38        -2.1543   -1.3849   -4.1070 H         1 <1>         0.1036
     39 H39        -3.4634    0.7664   -4.4822 H         1 <1>         0.1160
     40 H40        -3.6957    2.2208   -2.4159 H         1 <1>         0.1477
     41 H41         0.7330   -3.0056   -0.1217 H         1 <1>         0.0900
     42 H42         1.1700   -3.6889   -1.7062 H         1 <1>         0.0541
     43 H43         0.8643   -1.1248    0.8102 H         1 <1>         0.1454
     44 H44         3.7860    1.3266    2.7019 H         1 <1>         0.1498
     45 H45         5.5390    0.4567    1.2551 H         1 <1>         0.1579
     46 H46         5.6660   -2.6282   -2.1802 H         1 <1>         0.2082
     47 H47         3.3791   -3.4818   -2.4780 H         1 <1>         0.1200
@<TRIPOS>BOND
     1    1    2 1
     2    1   26 1
     3    1   27 1
     4    1   28 1
     5    2    3 1
     6    2    4 1
     7    2    5 1
     8    4   29 1
     9    4   30 1
    10    4   31 1
    11    5    6 1
    12    5   32 1
    13    5   33 1
    14    6    7 1
    15    6   34 1
    16    6   35 1
    17    7    8 1
    18    7   14 1
    19    8    9 1
    20    8   36 1
    21    8   37 1
    22    9   13 1
    23    9   10 2
    24   10   11 1
    25   10   38 1
    26   11   12 2
    27   11   39 1
    28   12   13 1
    29   12   40 1
    30   14   15 1
    31   14   41 1
    32   14   42 1
    33   15   25 ar
    34   15   16 ar
    35   16   22 ar
    36   16   17 ar
    37   17   18 ar
    38   17   43 1
    39   18   19 1
    40   18   20 ar
    41   20   21 ar
    42   20   44 1
    43   21   22 ar
    44   21   45 1
    45   22   23 ar
    46   23   24 ar
    47   24   25 ar
    48   24   46 1
    49   25   47 1
@<TRIPOS>Similarity
1.0823
@<TRIPOS>ShapeSim
0.7177
@<TRIPOS>PharmSim
0.3645
# END
# Name:		COC1=CC=C(NC2=NC(C(C=C3)=CC4=C3C=NN4)=CN5C2=NC=C5)C=C1
# Created and modified by SHAFTS on Thu Mar 11 05:28:35 2021

# 

@<TRIPOS>MOLECULE
COC1=CC=C(NC2=NC(C(C=C3)=CC4=C3C=NN4)=CN5C2=NC=C5)C=C1
   43    47     0
SMALL
USER_CHARGE


@<TRIPOS>ATOM
      1 C1         -3.0730   -0.9221   -5.8230 C.3       1 <1>         0.0227
      2 O2         -2.4531   -1.4255   -4.6379 O.3       1 <1>        -0.4221
      3 C3         -2.4886   -0.6287   -3.5365 C.ar      1 <1>        -0.0166
      4 C4         -3.1124    0.6089   -3.5960 C.ar      1 <1>        -0.0674
      5 C5         -3.1493    1.4185   -2.4780 C.ar      1 <1>        -0.0688
      6 C6         -2.5614    0.9934   -1.2936 C.ar      1 <1>        -0.0442
      7 N7         -2.5987    1.8132   -0.1597 N.pl3     1 <1>        -0.3071
      8 C8         -1.5438    1.8009    0.7393 C.2       1 <1>         0.0883
      9 N9         -0.4587    1.1031    0.4760 N.2       1 <1>        -0.3344
     10 C10         0.5769    1.0771    1.3334 C.2       1 <1>         0.0129
     11 C11         1.7806    0.2786    0.9990 C.ar      1 <1>        -0.0146
     12 C12         1.8189   -0.4188   -0.1886 C.ar      1 <1>        -0.0186
     13 C13         2.9623   -1.1781   -0.5088 C.ar      1 <1>        -0.0042
     14 N14         3.3129   -1.9391   -1.5308 N.2       1 <1>        -0.3448
     15 N15         4.5939   -2.4516   -1.2967 N.pl3     1 <1>        -0.3067
     16 C16         5.0547   -2.0105   -0.1180 C.2       1 <1>        -0.0312
     17 C17         4.0849   -1.2009    0.4424 C.ar      1 <1>        -0.0415
     18 C18         3.9818   -0.4635    1.6427 C.ar      1 <1>        -0.0861
     19 C19         2.8628    0.2535    1.8987 C.ar      1 <1>        -0.0700
     20 C20         0.5384    1.7714    2.5019 C.2       1 <1>        -0.0009
     21 N21        -0.5690    2.5109    2.8181 N.pl3     1 <1>        -0.3122
     22 C22        -0.9026    3.2924    3.8815 C.2       1 <1>        -0.0246
     23 C23        -2.1440    3.7793    3.6444 C.2       1 <1>        -0.0295
     24 N24        -2.5657    3.3124    2.4685 N.2       1 <1>        -0.3725
     25 C25        -1.6261    2.5447    1.9444 C.2       1 <1>         0.0971
     26 C26        -1.9370   -0.2458   -1.2350 C.ar      1 <1>        -0.0517
     27 C27        -1.9058   -1.0563   -2.3525 C.ar      1 <1>        -0.0497
     28 H28        -4.1295   -0.7364   -5.6296 H         1 <1>         0.0921
     29 H29        -2.5887    0.0085   -6.1191 H         1 <1>         0.0921
     30 H30        -2.9734   -1.6544   -6.6242 H         1 <1>         0.1210
     31 H31        -3.5691    0.9394   -4.5171 H         1 <1>         0.1139
     32 H32        -3.6347    2.3821   -2.5246 H         1 <1>         0.1325
     33 H33        -3.3627    2.3899   -0.0032 H         1 <1>         0.3447
     34 H34         0.9801   -0.3843   -0.8679 H         1 <1>         0.1688
     35 H35         5.0768   -3.0396   -1.8984 H         1 <1>         0.3974
     36 H36         6.0148   -2.2458    0.3170 H         1 <1>         0.2171
     37 H37         4.7957   -0.4685    2.3526 H         1 <1>         0.1367
     38 H38         2.7954    0.8138    2.8195 H         1 <1>         0.1237
     39 H39         1.3794    1.7391    3.1788 H         1 <1>         0.1874
     40 H40        -0.2924    3.4870    4.7511 H         1 <1>         0.1930
     41 H41        -2.6994    4.4354    4.2983 H         1 <1>         0.2070
     42 H42        -1.4797   -0.5771   -0.3144 H         1 <1>         0.1503
     43 H43        -1.4206   -2.0201   -2.3069 H         1 <1>         0.1305
@<TRIPOS>BOND
     1    1    2 1
     2    1   28 1
     3    1   29 1
     4    1   30 1
     5    2    3 1
     6    3   27 ar
     7    3    4 ar
     8    4    5 ar
     9    4   31 1
    10    5    6 ar
    11    5   32 1
    12    6    7 1
    13    6   26 ar
    14    7    8 1
    15    7   33 1
    16    8   25 1
    17    8    9 2
    18    9   10 1
    19   10   11 1
    20   10   20 2
    21   11   19 ar
    22   11   12 ar
    23   12   13 ar
    24   12   34 1
    25   13   17 ar
    26   13   14 2
    27   14   15 1
    28   15   16 1
    29   15   35 1
    30   16   17 2
    31   16   36 1
    32   17   18 ar
    33   18   19 ar
    34   18   37 1
    35   19   38 1
    36   20   21 1
    37   20   39 1
    38   21   25 1
    39   21   22 1
    40   22   23 2
    41   22   40 1
    42   23   24 1
    43   23   41 1
    44   24   25 2
    45   26   27 ar
    46   26   42 1
    47   27   43 1
@<TRIPOS>Similarity
1.0801
@<TRIPOS>ShapeSim
0.6904
@<TRIPOS>PharmSim
0.3897
# END
# Name:		C1[C@H](OC2=C([C@]13C(=O)NC(=O)N3)C=C(C=C2)F)C(=O)N
# Created and modified by SHAFTS on Thu Mar 11 05:28:35 2021

# 

@<TRIPOS>MOLECULE
C1[C@H](OC2=C([C@]13C(=O)NC(=O)N3)C=C(C=C2)F)C(=O)N
   30    32     0
SMALL
USER_CHARGE


@<TRIPOS>ATOM
      1 N1          2.2218    3.4630    2.4095 N.am      1 <1>        -0.3470
      2 C2          3.1617    2.5795    2.0186 C.2       1 <1>         0.1030
      3 O3          4.3114    2.7179    2.3791 O.2       1 <1>        -0.4727
      4 C4          2.7840    1.4197    1.1336 C.3       1 <1>         0.1377
      5 H5          2.2898    1.7901    0.2354 H         1 <1>         0.1707
      6 C6          1.8375    0.4789    1.8922 C.3       1 <1>         0.0515
      7 C7          1.4096   -0.6371    0.9440 C.3       1 <1>         0.1099
      8 N8          0.4133   -0.1428   -0.0147 N.am      1 <1>        -0.2850
      9 C9         -0.7052   -0.8636    0.1933 C.2       1 <1>         0.1576
     10 O10        -1.7339   -0.7119   -0.4359 O.2       1 <1>        -0.4498
     11 N11        -0.5565   -1.7663    1.1707 N.am      1 <1>        -0.2031
     12 C12         0.6831   -1.7239    1.7018 C.2       1 <1>         0.1641
     13 O13         1.1217   -2.4128    2.5978 O.2       1 <1>        -0.4184
     14 C14         2.5982   -1.2057    0.2210 C.ar      1 <1>        -0.0100
     15 C15         2.4839   -2.4386   -0.3983 C.ar      1 <1>        -0.0336
     16 C16         3.5606   -2.9828   -1.0752 C.ar      1 <1>         0.0717
     17 F17         3.4425   -4.1866   -1.6768 F         1 <1>        -0.2672
     18 C18         4.7594   -2.2929   -1.1351 C.ar      1 <1>        -0.0305
     19 C19         4.8786   -1.0647   -0.5168 C.ar      1 <1>        -0.0341
     20 C20         3.7989   -0.5163    0.1662 C.ar      1 <1>         0.0235
     21 O21         3.9573    0.6913    0.7701 O.3       1 <1>        -0.3675
     22 H22         2.4651    4.2095    2.9791 H         1 <1>         0.2782
     23 H23         1.3031    3.3545    2.1179 H         1 <1>         0.2703
     24 H24         2.3546    0.0526    2.7518 H         1 <1>         0.1039
     25 H25         0.9605    1.0324    2.2277 H         1 <1>         0.0968
     26 H26         0.5365    0.5632   -0.6685 H         1 <1>         0.3399
     27 H27        -1.2537   -2.3747    1.4616 H         1 <1>         0.3710
     28 H28         1.5494   -2.9781   -0.3529 H         1 <1>         0.1356
     29 H29         5.6003   -2.7155   -1.6648 H         1 <1>         0.1519
     30 H30         5.8142   -0.5273   -0.5642 H         1 <1>         0.1517
@<TRIPOS>BOND
     1    1    2 am
     2    1   22 1
     3    1   23 1
     4    2    3 2
     5    2    4 1
     6    4    5 1
     7    4   21 1
     8    4    6 1
     9    6    7 1
    10    6   24 1
    11    6   25 1
    12    7   12 1
    13    7    8 1
    14    7   14 1
    15    8    9 am
    16    8   26 1
    17    9   10 2
    18    9   11 am
    19   11   12 am
    20   11   27 1
    21   12   13 2
    22   14   20 ar
    23   14   15 ar
    24   15   16 ar
    25   15   28 1
    26   16   17 1
    27   16   18 ar
    28   18   19 ar
    29   18   29 1
    30   19   20 ar
    31   19   30 1
    32   20   21 1
@<TRIPOS>Similarity
1.0772
@<TRIPOS>ShapeSim
0.6942
@<TRIPOS>PharmSim
0.3831
# END
# Name:		C1CCC(C1)N2C3=NC=NC(=C3C(=N2)C4=CN=C5C(=C4)C=CN5)N
# Created and modified by SHAFTS on Thu Mar 11 05:28:35 2021

# 

@<TRIPOS>MOLECULE
C1CCC(C1)N2C3=NC=NC(=C3C(=N2)C4=CN=C5C(=C4)C=CN5)N
   41    45     0
SMALL
USER_CHARGE


@<TRIPOS>ATOM
      1 N1          2.3803   -2.4318   -1.8889 N.pl3     1 <1>        -0.3614
      2 C2          3.2499   -1.9347   -0.9375 C.ar      1 <1>         0.0057
      3 C3          2.8392   -0.9375   -0.0378 C.ar      1 <1>         0.0797
      4 C4          1.5983   -0.1978    0.1904 C.2       1 <1>         0.0469
      5 C5          0.3333   -0.3494   -0.5681 C.ar      1 <1>         0.0124
      6 C6         -0.1627   -1.6204   -0.8706 C.ar      1 <1>        -0.0028
      7 N7         -1.2816   -1.7771   -1.5422 N.ar      1 <1>        -0.3684
      8 C8         -1.9954   -0.7415   -1.9655 C.ar      1 <1>        -0.0059
      9 N9         -3.1711   -0.6384   -2.6700 N.pl3     1 <1>        -0.3406
     10 C10        -3.4923    0.6793   -2.8568 C.2       1 <1>        -0.0629
     11 C11        -2.5590    1.4623   -2.2938 C.2       1 <1>        -0.0760
     12 C12        -1.5601    0.5717   -1.6989 C.ar      1 <1>        -0.0346
     13 C13        -0.3798    0.7742   -0.9839 C.ar      1 <1>        -0.0453
     14 N14         1.8111    0.6247    1.1901 N.2       1 <1>        -0.2941
     15 N15         3.1243    0.4836    1.6510 N.pl3     1 <1>        -0.2811
     16 C16         3.7187    1.2386    2.7569 C.3       1 <1>         0.0093
     17 C17         3.6223    2.7523    2.4754 C.3       1 <1>        -0.0368
     18 C18         2.3386    3.1962    3.2195 C.3       1 <1>        -0.0620
     19 C19         2.3839    2.3483    4.5150 C.3       1 <1>        -0.0630
     20 C20         2.9313    0.9818    4.0538 C.3       1 <1>        -0.0356
     21 C21         3.7648   -0.4658    0.9119 C.ar      1 <1>         0.0539
     22 N22         4.9928   -0.9837    0.9192 N.ar      1 <1>        -0.3395
     23 C23         5.3329   -1.9163    0.0566 C.ar      1 <1>         0.0422
     24 N24         4.4950   -2.3924   -0.8470 N.ar      1 <1>        -0.3429
     25 H25         2.5821   -3.2653   -2.3422 H         1 <1>         0.2811
     26 H26         1.5659   -1.9493   -2.1008 H         1 <1>         0.2811
     27 H27         0.3852   -2.4927   -0.5459 H         1 <1>         0.2246
     28 H28        -3.6962   -1.3893   -2.9884 H         1 <1>         0.3391
     29 H29        -4.3670    1.0359   -3.3804 H         1 <1>         0.2007
     30 H30        -2.5466    2.5422   -2.2821 H         1 <1>         0.1327
     31 H31        -0.0275    1.7707   -0.7617 H         1 <1>         0.1623
     32 H32         4.7610    0.9483    2.8892 H         1 <1>         0.1437
     33 H33         4.4936    3.2709    2.8752 H         1 <1>         0.0630
     34 H34         3.5258    2.9359    1.4053 H         1 <1>         0.0558
     35 H35         2.3755    4.2603    3.4528 H         1 <1>         0.0470
     36 H36         1.4507    2.9588    2.6334 H         1 <1>         0.0541
     37 H37         3.0553    2.8017    5.2443 H         1 <1>         0.0467
     38 H38         1.3836    2.2371    4.9334 H         1 <1>         0.0467
     39 H39         2.1069    0.2954    3.8603 H         1 <1>         0.0633
     40 H40         3.5917    0.5676    4.8157 H         1 <1>         0.0633
     41 H41         6.3368   -2.3127    0.0915 H         1 <1>         0.3176
@<TRIPOS>BOND
     1    1    2 1
     2    1   25 1
     3    1   26 1
     4    2   24 ar
     5    2    3 ar
     6    3   21 ar
     7    3    4 1
     8    4    5 1
     9    4   14 2
    10    5   13 ar
    11    5    6 ar
    12    6    7 ar
    13    6   27 1
    14    7    8 ar
    15    8   12 ar
    16    8    9 1
    17    9   10 1
    18    9   28 1
    19   10   11 2
    20   10   29 1
    21   11   12 1
    22   11   30 1
    23   12   13 ar
    24   13   31 1
    25   14   15 1
    26   15   16 1
    27   15   21 1
    28   16   20 1
    29   16   17 1
    30   16   32 1
    31   17   18 1
    32   17   33 1
    33   17   34 1
    34   18   19 1
    35   18   35 1
    36   18   36 1
    37   19   20 1
    38   19   37 1
    39   19   38 1
    40   20   39 1
    41   20   40 1
    42   21   22 ar
    43   22   23 ar
    44   23   24 ar
    45   23   41 1
@<TRIPOS>Similarity
1.0766
@<TRIPOS>ShapeSim
0.7503
@<TRIPOS>PharmSim
0.3262
# END
# Name:		CCOC(=O)C1=CNC2=C(C1=O)C=C(C=C2)OC
# Created and modified by SHAFTS on Thu Mar 11 05:28:35 2021

# 

@<TRIPOS>MOLECULE
CCOC(=O)C1=CNC2=C(C1=O)C=C(C=C2)OC
   31    32     0
SMALL
USER_CHARGE


@<TRIPOS>ATOM
      1 C1          1.0353    4.5026    4.3060 C.3       1 <1>        -0.0325
      2 C2          2.3626    4.0449    3.6977 C.3       1 <1>         0.0264
      3 O3          2.1574    2.8102    2.9618 O.3       1 <1>        -0.3524
      4 C4          3.2358    2.2698    2.3606 C.2       1 <1>         0.1921
      5 O5          4.3182    2.8156    2.4489 O.2       1 <1>        -0.4426
      6 C6          3.1028    1.0185    1.5967 C.ar      1 <1>         0.1162
      7 C7          1.8538    0.3843    1.4848 C.ar      1 <1>         0.0151
      8 N8          1.7074   -0.7278    0.8124 N.ar      1 <1>        -0.3774
      9 C9          2.7363   -1.3239    0.1935 C.ar      1 <1>        -0.0099
     10 C10         2.5467   -2.5180   -0.5215 C.ar      1 <1>        -0.0425
     11 C11         3.5997   -3.1132   -1.1453 C.ar      1 <1>        -0.0461
     12 C12         4.8788   -2.5544   -1.0886 C.ar      1 <1>        -0.0010
     13 O13         5.9123   -3.1700   -1.7214 O.3       1 <1>        -0.4151
     14 C14         5.6161   -4.3799   -2.4216 C.3       1 <1>         0.0258
     15 C15         5.1007   -1.3844   -0.3970 C.ar      1 <1>        -0.0299
     16 C16         4.0305   -0.7535    0.2539 C.ar      1 <1>         0.0095
     17 C17         4.2183    0.4508    0.9692 C.ar      1 <1>         0.0434
     18 O18         5.4364    1.0334    1.0486 O.3       1 <1>        -0.3982
     19 H19         0.3097    4.6704    3.5101 H         1 <1>         0.0514
     20 H20         0.6616    3.7342    4.9825 H         1 <1>         0.0514
     21 H21         1.1894    5.4295    4.8585 H         1 <1>         0.0585
     22 H22         2.7364    4.8134    3.0211 H         1 <1>         0.1011
     23 H23         3.0883    3.8772    4.4936 H         1 <1>         0.1011
     24 H24         0.9938    0.8260    1.9661 H         1 <1>         0.2388
     25 H25         1.5647   -2.9643   -0.5759 H         1 <1>         0.1604
     26 H26         3.4442   -4.0315   -1.6920 H         1 <1>         0.1321
     27 H27         6.5263   -4.7666   -2.8800 H         1 <1>         0.1271
     28 H28         5.2201   -5.1166   -1.7226 H         1 <1>         0.0909
     29 H29         4.8760   -4.1795   -3.1963 H         1 <1>         0.0909
     30 H30         6.0913   -0.9558   -0.3563 H         1 <1>         0.1492
     31 H31         5.6174    1.6650    0.3391 H         1 <1>         0.3863
@<TRIPOS>BOND
     1    1    2 1
     2    1   19 1
     3    1   20 1
     4    1   21 1
     5    2    3 1
     6    2   22 1
     7    2   23 1
     8    3    4 1
     9    4    5 2
    10    4    6 1
    11    6   17 ar
    12    6    7 ar
    13    7    8 ar
    14    7   24 1
    15    8    9 ar
    16    9   16 ar
    17    9   10 ar
    18   10   11 ar
    19   10   25 1
    20   11   12 ar
    21   11   26 1
    22   12   13 1
    23   12   15 ar
    24   13   14 1
    25   14   27 1
    26   14   28 1
    27   14   29 1
    28   15   16 ar
    29   15   30 1
    30   16   17 ar
    31   17   18 1
    32   18   31 1
@<TRIPOS>Similarity
1.0751
@<TRIPOS>ShapeSim
0.6608
@<TRIPOS>PharmSim
0.4142
# END
# Name:		C1=C2C3=C(C(=C1O)O)OC(=O)C4=CC(=C(C(=C43)OC2=O)O)O
# Created and modified by SHAFTS on Thu Mar 11 05:28:35 2021

# 

@<TRIPOS>MOLECULE
C1=C2C3=C(C(=C1O)O)OC(=O)C4=CC(=C(C(=C43)OC2=O)O)O
   26    29     0
SMALL
USER_CHARGE


@<TRIPOS>ATOM
      1 O1          0.9493   -2.4219   -1.9466 O.2       1 <1>        -0.4213
      2 C2          1.3420   -1.9554   -0.8942 C.2       1 <1>         0.2109
      3 O3          0.4578   -1.5447    0.0461 O.3       1 <1>        -0.2779
      4 C4          0.7663   -0.4675    0.8099 C.ar      1 <1>         0.0621
      5 C5         -0.2056    0.2956    1.4491 C.ar      1 <1>         0.0429
      6 O6         -1.5196   -0.0152    1.2973 O.3       1 <1>        -0.4311
      7 C7          0.1660    1.3792    2.2463 C.ar      1 <1>        -0.0267
      8 O8         -0.8009    2.1080    2.8650 O.3       1 <1>        -0.5752
      9 C9          1.4955    1.7328    2.4240 C.ar      1 <1>        -0.0337
     10 C10         2.4834    0.9921    1.7881 C.ar      1 <1>         0.0400
     11 C11         2.0995   -0.1042    0.9872 C.ar      1 <1>        -0.0312
     12 C12         3.1674   -0.8702    0.3333 C.ar      1 <1>        -0.0312
     13 C13         2.7829   -1.8357   -0.6242 C.ar      1 <1>         0.0400
     14 C14         3.7713   -2.5754   -1.2602 C.ar      1 <1>        -0.0337
     15 C15         5.1017   -2.3324   -0.9514 C.ar      1 <1>        -0.0267
     16 O16         6.0691   -3.0521   -1.5798 O.3       1 <1>        -0.5752
     17 C17         5.4735   -1.3685   -0.0130 C.ar      1 <1>         0.0429
     18 O18         6.7884   -1.1539    0.2541 O.3       1 <1>        -0.4311
     19 C19         4.5013   -0.6289    0.6534 C.ar      1 <1>         0.0621
     20 O20         4.8094    0.2853    1.6067 O.3       1 <1>        -0.2779
     21 C21         3.9245    1.2740    1.8745 C.2       1 <1>         0.2109
     22 O22         4.3159    2.3853    2.1765 O.2       1 <1>        -0.4213
     23 H23        -1.8554   -0.6375    1.9568 H         1 <1>         0.3347
     24 H24         1.7590    2.5735    3.0485 H         1 <1>         0.1163
     25 H25         3.5076   -3.3305   -1.9860 H         1 <1>         0.1163
     26 H26         7.1992   -0.4820   -0.3070 H         1 <1>         0.3347
@<TRIPOS>BOND
     1    1    2 2
     2    2   13 1
     3    2    3 1
     4    3    4 1
     5    4   11 ar
     6    4    5 ar
     7    5    6 1
     8    5    7 ar
     9    6   23 1
    10    7    8 1
    11    7    9 ar
    12    9   10 ar
    13    9   24 1
    14   10   21 1
    15   10   11 ar
    16   11   12 1
    17   12   19 ar
    18   12   13 ar
    19   13   14 ar
    20   14   15 ar
    21   14   25 1
    22   15   16 1
    23   15   17 ar
    24   17   18 1
    25   17   19 ar
    26   18   26 1
    27   19   20 1
    28   20   21 1
    29   21   22 2
@<TRIPOS>Similarity
1.0731
@<TRIPOS>ShapeSim
0.6791
@<TRIPOS>PharmSim
0.3940
# END
# Name:		C1=C2C3=C(C(=C1O)O)OC(=O)C4=CC(=C(C(=C43)OC2=O)O)O
# Created and modified by SHAFTS on Thu Mar 11 05:28:35 2021

# 

@<TRIPOS>MOLECULE
C1=C2C3=C(C(=C1O)O)OC(=O)C4=CC(=C(C(=C43)OC2=O)O)O
   26    29     0
SMALL
USER_CHARGE


@<TRIPOS>ATOM
      1 O1          0.9493   -2.4219   -1.9466 O.2       1 <1>        -0.4213
      2 C2          1.3420   -1.9554   -0.8942 C.2       1 <1>         0.2109
      3 O3          0.4578   -1.5447    0.0461 O.3       1 <1>        -0.2779
      4 C4          0.7663   -0.4675    0.8099 C.ar      1 <1>         0.0621
      5 C5         -0.2056    0.2956    1.4491 C.ar      1 <1>         0.0429
      6 O6         -1.5196   -0.0152    1.2973 O.3       1 <1>        -0.4311
      7 C7          0.1660    1.3792    2.2463 C.ar      1 <1>        -0.0267
      8 O8         -0.8009    2.1080    2.8650 O.3       1 <1>        -0.5752
      9 C9          1.4955    1.7328    2.4240 C.ar      1 <1>        -0.0337
     10 C10         2.4834    0.9921    1.7881 C.ar      1 <1>         0.0400
     11 C11         2.0995   -0.1042    0.9872 C.ar      1 <1>        -0.0312
     12 C12         3.1674   -0.8702    0.3333 C.ar      1 <1>        -0.0312
     13 C13         2.7829   -1.8357   -0.6242 C.ar      1 <1>         0.0400
     14 C14         3.7713   -2.5754   -1.2602 C.ar      1 <1>        -0.0337
     15 C15         5.1017   -2.3324   -0.9514 C.ar      1 <1>        -0.0267
     16 O16         6.0691   -3.0521   -1.5798 O.3       1 <1>        -0.5752
     17 C17         5.4735   -1.3685   -0.0130 C.ar      1 <1>         0.0429
     18 O18         6.7884   -1.1539    0.2541 O.3       1 <1>        -0.4311
     19 C19         4.5013   -0.6289    0.6534 C.ar      1 <1>         0.0621
     20 O20         4.8094    0.2853    1.6067 O.3       1 <1>        -0.2779
     21 C21         3.9245    1.2740    1.8745 C.2       1 <1>         0.2109
     22 O22         4.3159    2.3853    2.1765 O.2       1 <1>        -0.4213
     23 H23        -1.8554   -0.6375    1.9568 H         1 <1>         0.3347
     24 H24         1.7590    2.5735    3.0485 H         1 <1>         0.1163
     25 H25         3.5076   -3.3305   -1.9860 H         1 <1>         0.1163
     26 H26         7.1992   -0.4820   -0.3070 H         1 <1>         0.3347
@<TRIPOS>BOND
     1    1    2 2
     2    2   13 1
     3    2    3 1
     4    3    4 1
     5    4   11 ar
     6    4    5 ar
     7    5    6 1
     8    5    7 ar
     9    6   23 1
    10    7    8 1
    11    7    9 ar
    12    9   10 ar
    13    9   24 1
    14   10   21 1
    15   10   11 ar
    16   11   12 1
    17   12   19 ar
    18   12   13 ar
    19   13   14 ar
    20   14   15 ar
    21   14   25 1
    22   15   16 1
    23   15   17 ar
    24   17   18 1
    25   17   19 ar
    26   18   26 1
    27   19   20 1
    28   20   21 1
    29   21   22 2
@<TRIPOS>Similarity
1.0731
@<TRIPOS>ShapeSim
0.6791
@<TRIPOS>PharmSim
0.3940
# END
# Name:		C1=C2C3=C(C(=C1O)O)OC(=O)C4=CC(=C(C(=C43)OC2=O)O)O
# Created and modified by SHAFTS on Thu Mar 11 05:28:35 2021

# 

@<TRIPOS>MOLECULE
C1=C2C3=C(C(=C1O)O)OC(=O)C4=CC(=C(C(=C43)OC2=O)O)O
   26    29     0
SMALL
USER_CHARGE


@<TRIPOS>ATOM
      1 O1          0.9493   -2.4219   -1.9466 O.2       1 <1>        -0.4213
      2 C2          1.3420   -1.9554   -0.8942 C.2       1 <1>         0.2109
      3 O3          0.4578   -1.5447    0.0461 O.3       1 <1>        -0.2779
      4 C4          0.7663   -0.4675    0.8099 C.ar      1 <1>         0.0621
      5 C5         -0.2056    0.2956    1.4491 C.ar      1 <1>         0.0429
      6 O6         -1.5196   -0.0152    1.2973 O.3       1 <1>        -0.4311
      7 C7          0.1660    1.3792    2.2463 C.ar      1 <1>        -0.0267
      8 O8         -0.8009    2.1080    2.8650 O.3       1 <1>        -0.5752
      9 C9          1.4955    1.7328    2.4240 C.ar      1 <1>        -0.0337
     10 C10         2.4834    0.9921    1.7881 C.ar      1 <1>         0.0400
     11 C11         2.0995   -0.1042    0.9872 C.ar      1 <1>        -0.0312
     12 C12         3.1674   -0.8702    0.3333 C.ar      1 <1>        -0.0312
     13 C13         2.7829   -1.8357   -0.6242 C.ar      1 <1>         0.0400
     14 C14         3.7713   -2.5754   -1.2602 C.ar      1 <1>        -0.0337
     15 C15         5.1017   -2.3324   -0.9514 C.ar      1 <1>        -0.0267
     16 O16         6.0691   -3.0521   -1.5798 O.3       1 <1>        -0.5752
     17 C17         5.4735   -1.3685   -0.0130 C.ar      1 <1>         0.0429
     18 O18         6.7884   -1.1539    0.2541 O.3       1 <1>        -0.4311
     19 C19         4.5013   -0.6289    0.6534 C.ar      1 <1>         0.0621
     20 O20         4.8094    0.2853    1.6067 O.3       1 <1>        -0.2779
     21 C21         3.9245    1.2740    1.8745 C.2       1 <1>         0.2109
     22 O22         4.3159    2.3853    2.1765 O.2       1 <1>        -0.4213
     23 H23        -1.8554   -0.6375    1.9568 H         1 <1>         0.3347
     24 H24         1.7590    2.5735    3.0485 H         1 <1>         0.1163
     25 H25         3.5076   -3.3305   -1.9860 H         1 <1>         0.1163
     26 H26         7.1992   -0.4820   -0.3070 H         1 <1>         0.3347
@<TRIPOS>BOND
     1    1    2 2
     2    2   13 1
     3    2    3 1
     4    3    4 1
     5    4   11 ar
     6    4    5 ar
     7    5    6 1
     8    5    7 ar
     9    6   23 1
    10    7    8 1
    11    7    9 ar
    12    9   10 ar
    13    9   24 1
    14   10   21 1
    15   10   11 ar
    16   11   12 1
    17   12   19 ar
    18   12   13 ar
    19   13   14 ar
    20   14   15 ar
    21   14   25 1
    22   15   16 1
    23   15   17 ar
    24   17   18 1
    25   17   19 ar
    26   18   26 1
    27   19   20 1
    28   20   21 1
    29   21   22 2
@<TRIPOS>Similarity
1.0731
@<TRIPOS>ShapeSim
0.6791
@<TRIPOS>PharmSim
0.3940
# END
# Name:		C1=C2C3=C(C(=C1O)O)OC(=O)C4=CC(=C(C(=C43)OC2=O)O)O
# Created and modified by SHAFTS on Thu Mar 11 05:28:35 2021

# 

@<TRIPOS>MOLECULE
C1=C2C3=C(C(=C1O)O)OC(=O)C4=CC(=C(C(=C43)OC2=O)O)O
   26    29     0
SMALL
USER_CHARGE


@<TRIPOS>ATOM
      1 O1          0.9493   -2.4219   -1.9466 O.2       1 <1>        -0.4213
      2 C2          1.3420   -1.9554   -0.8942 C.2       1 <1>         0.2109
      3 O3          0.4578   -1.5447    0.0461 O.3       1 <1>        -0.2779
      4 C4          0.7663   -0.4675    0.8099 C.ar      1 <1>         0.0621
      5 C5         -0.2056    0.2956    1.4491 C.ar      1 <1>         0.0429
      6 O6         -1.5196   -0.0152    1.2973 O.3       1 <1>        -0.4311
      7 C7          0.1660    1.3792    2.2463 C.ar      1 <1>        -0.0267
      8 O8         -0.8009    2.1080    2.8650 O.3       1 <1>        -0.5752
      9 C9          1.4955    1.7328    2.4240 C.ar      1 <1>        -0.0337
     10 C10         2.4834    0.9921    1.7881 C.ar      1 <1>         0.0400
     11 C11         2.0995   -0.1042    0.9872 C.ar      1 <1>        -0.0312
     12 C12         3.1674   -0.8702    0.3333 C.ar      1 <1>        -0.0312
     13 C13         2.7829   -1.8357   -0.6242 C.ar      1 <1>         0.0400
     14 C14         3.7713   -2.5754   -1.2602 C.ar      1 <1>        -0.0337
     15 C15         5.1017   -2.3324   -0.9514 C.ar      1 <1>        -0.0267
     16 O16         6.0691   -3.0521   -1.5798 O.3       1 <1>        -0.5752
     17 C17         5.4735   -1.3685   -0.0130 C.ar      1 <1>         0.0429
     18 O18         6.7884   -1.1539    0.2541 O.3       1 <1>        -0.4311
     19 C19         4.5013   -0.6289    0.6534 C.ar      1 <1>         0.0621
     20 O20         4.8094    0.2853    1.6067 O.3       1 <1>        -0.2779
     21 C21         3.9245    1.2740    1.8745 C.2       1 <1>         0.2109
     22 O22         4.3159    2.3853    2.1765 O.2       1 <1>        -0.4213
     23 H23        -1.8554   -0.6375    1.9568 H         1 <1>         0.3347
     24 H24         1.7590    2.5735    3.0485 H         1 <1>         0.1163
     25 H25         3.5076   -3.3305   -1.9860 H         1 <1>         0.1163
     26 H26         7.1992   -0.4820   -0.3070 H         1 <1>         0.3347
@<TRIPOS>BOND
     1    1    2 2
     2    2   13 1
     3    2    3 1
     4    3    4 1
     5    4   11 ar
     6    4    5 ar
     7    5    6 1
     8    5    7 ar
     9    6   23 1
    10    7    8 1
    11    7    9 ar
    12    9   10 ar
    13    9   24 1
    14   10   21 1
    15   10   11 ar
    16   11   12 1
    17   12   19 ar
    18   12   13 ar
    19   13   14 ar
    20   14   15 ar
    21   14   25 1
    22   15   16 1
    23   15   17 ar
    24   17   18 1
    25   17   19 ar
    26   18   26 1
    27   19   20 1
    28   20   21 1
    29   21   22 2
@<TRIPOS>Similarity
1.0731
@<TRIPOS>ShapeSim
0.6791
@<TRIPOS>PharmSim
0.3940
# END
# Name:		C12=CC=CC=C1C(C3=NC(C4=CNC5=C4C=CC=C5)=CS3)=CN2
# Created and modified by SHAFTS on Thu Mar 11 05:28:35 2021

# 

@<TRIPOS>MOLECULE
C12=CC=CC=C1C(C3=NC(C4=CNC5=C4C=CC=C5)=CS3)=CN2
   36    40     0
SMALL
USER_CHARGE


@<TRIPOS>ATOM
      1 C1          3.1359    0.5133    2.1463 C.2       1 <1>        -0.0483
      2 C2          2.3452    0.1641    1.1037 C.2       1 <1>        -0.0238
      3 C3          0.9875    0.6847    0.8091 C.2       1 <1>        -0.0258
      4 C4          0.3850    1.6035    1.5878 C.2       1 <1>        -0.0092
      5 S5         -1.2001    1.9539    0.9023 S.3       1 <1>        -0.0738
      6 C6         -0.8933    0.8043   -0.3961 C.2       1 <1>         0.0480
      7 C7         -1.8276    0.4868   -1.4935 C.2       1 <1>        -0.0019
      8 C8         -1.6223   -0.3973   -2.5043 C.2       1 <1>        -0.0342
      9 N9         -2.7106   -0.4188   -3.3252 N.pl3     1 <1>        -0.3581
     10 C10        -3.6692    0.4606   -2.8693 C.ar      1 <1>        -0.0610
     11 C11        -4.9339    0.8133   -3.3290 C.ar      1 <1>        -0.0759
     12 C12        -5.6781    1.7489   -2.6441 C.ar      1 <1>        -0.0969
     13 C13        -5.1787    2.3471   -1.4961 C.ar      1 <1>        -0.0998
     14 C14        -3.9286    2.0122   -1.0248 C.ar      1 <1>        -0.0894
     15 C15        -3.1674    1.0621   -1.7027 C.ar      1 <1>        -0.0524
     16 N16         0.2891    0.2822   -0.2390 N.2       1 <1>        -0.3707
     17 C17         3.0931   -0.8315    0.3198 C.ar      1 <1>        -0.0488
     18 C18         2.8196   -1.5526   -0.8415 C.ar      1 <1>        -0.0843
     19 C19         3.7483   -2.4277   -1.3321 C.ar      1 <1>        -0.1029
     20 C20         4.9617   -2.6042   -0.6825 C.ar      1 <1>        -0.1013
     21 C21         5.2516   -1.9017    0.4669 C.ar      1 <1>        -0.0790
     22 C22         4.3207   -1.0053    0.9824 C.ar      1 <1>        -0.0633
     23 N23         4.3151   -0.1776    2.0835 N.pl3     1 <1>        -0.3674
     24 H24         2.8766    1.2321    2.9094 H         1 <1>         0.1992
     25 H25         0.8014    2.0487    2.4793 H         1 <1>         0.1420
     26 H26        -0.7313   -0.9929   -2.6375 H         1 <1>         0.2199
     27 H27        -2.7978   -0.9732   -4.1165 H         1 <1>         0.3343
     28 H28        -5.3320    0.3544   -4.2220 H         1 <1>         0.1215
     29 H29        -6.6595    2.0197   -3.0047 H         1 <1>         0.1246
     30 H30        -5.7730    3.0793   -0.9696 H         1 <1>         0.1193
     31 H31        -3.5422    2.4799   -0.1312 H         1 <1>         0.1234
     32 H32         1.8768   -1.4206   -1.3518 H         1 <1>         0.1357
     33 H33         3.5358   -2.9861   -2.2319 H         1 <1>         0.1075
     34 H34         5.6857   -3.2992   -1.0814 H         1 <1>         0.1234
     35 H35         6.1987   -2.0457    0.9655 H         1 <1>         0.1189
     36 H36         5.0412   -0.0964    2.7214 H         1 <1>         0.3302
@<TRIPOS>BOND
     1    1   23 1
     2    1    2 2
     3    1   24 1
     4    2    3 1
     5    2   17 1
     6    3   16 1
     7    3    4 2
     8    4    5 1
     9    4   25 1
    10    5    6 1
    11    6    7 1
    12    6   16 2
    13    7   15 1
    14    7    8 2
    15    8    9 1
    16    8   26 1
    17    9   10 1
    18    9   27 1
    19   10   15 ar
    20   10   11 ar
    21   11   12 ar
    22   11   28 1
    23   12   13 ar
    24   12   29 1
    25   13   14 ar
    26   13   30 1
    27   14   15 ar
    28   14   31 1
    29   17   22 ar
    30   17   18 ar
    31   18   19 ar
    32   18   32 1
    33   19   20 ar
    34   19   33 1
    35   20   21 ar
    36   20   34 1
    37   21   22 ar
    38   21   35 1
    39   22   23 1
    40   23   36 1
@<TRIPOS>Similarity
1.0726
@<TRIPOS>ShapeSim
0.7642
@<TRIPOS>PharmSim
0.3084
# END
# Name:		CC1=CC(=CC2=C1C3=C(C(=CC(=C3)O)O)C(=O)O2)O
# Created and modified by SHAFTS on Thu Mar 11 05:28:35 2021

# 

@<TRIPOS>MOLECULE
CC1=CC(=CC2=C1C3=C(C(=CC(=C3)O)O)C(=O)O2)O
   29    31     0
SMALL
USER_CHARGE


@<TRIPOS>ATOM
      1 C1          1.3527   -2.1374   -1.0196 C.3       1 <1>        -0.0312
      2 C2          2.7725   -1.8447   -0.6075 C.ar      1 <1>        -0.0844
      3 C3          3.7697   -2.6152   -1.1794 C.ar      1 <1>        -0.0539
      4 C4          5.1037   -2.3796   -0.8782 C.ar      1 <1>        -0.0184
      5 O5          6.0734   -3.1580   -1.4238 O.3       1 <1>        -0.4269
      6 C6          5.4445   -1.3418   -0.0305 C.ar      1 <1>        -0.0075
      7 C7          4.4550   -0.5621    0.5527 C.ar      1 <1>         0.0559
      8 C8          3.0982   -0.8629    0.3202 C.ar      1 <1>        -0.0196
      9 C9          2.1017   -0.1303    1.1231 C.ar      1 <1>        -0.0319
     10 C10         0.8440   -0.5969    1.4538 C.ar      1 <1>        -0.0372
     11 C11        -0.0771    0.2450    2.0674 C.ar      1 <1>        -0.0136
     12 O12        -1.3158   -0.2216    2.3672 O.3       1 <1>        -0.4253
     13 C13         0.2613    1.5536    2.3865 C.ar      1 <1>        -0.0114
     14 C14         1.5510    2.0078    2.1631 C.ar      1 <1>         0.0159
     15 O15         1.8766    3.2946    2.4413 O.3       1 <1>        -0.4113
     16 C16         2.5064    1.1209    1.6614 C.ar      1 <1>         0.0867
     17 C17         3.9433    1.4004    1.7427 C.2       1 <1>         0.2223
     18 O18         4.3388    2.4576    2.2170 O.2       1 <1>        -0.4076
     19 O19         4.8289    0.4919    1.3054 O.3       1 <1>        -0.2760
     20 H20         1.0525   -1.4447   -1.8059 H         1 <1>         0.0619
     21 H21         1.2856   -3.1598   -1.3911 H         1 <1>         0.0619
     22 H22         0.6931   -2.0192   -0.1600 H         1 <1>         0.0619
     23 H23         3.5003   -3.4044   -1.8663 H         1 <1>         0.1320
     24 H24         6.4117   -2.8307   -2.2685 H         1 <1>         0.3668
     25 H25         6.4836   -1.1352    0.1817 H         1 <1>         0.1486
     26 H26         0.5707   -1.6305    1.3001 H         1 <1>         0.1450
     27 H27        -1.3847   -0.6173    3.2469 H         1 <1>         0.3672
     28 H28        -0.4785    2.2162    2.8077 H         1 <1>         0.1459
     29 H29         2.1960    3.4333    3.3434 H         1 <1>         0.3741
@<TRIPOS>BOND
     1    1    2 1
     2    1   20 1
     3    1   21 1
     4    1   22 1
     5    2    8 ar
     6    2    3 ar
     7    3    4 ar
     8    3   23 1
     9    4    5 1
    10    4    6 ar
    11    5   24 1
    12    6    7 ar
    13    6   25 1
    14    7   19 1
    15    7    8 ar
    16    8    9 1
    17    9   16 ar
    18    9   10 ar
    19   10   11 ar
    20   10   26 1
    21   11   12 1
    22   11   13 ar
    23   12   27 1
    24   13   14 ar
    25   13   28 1
    26   14   15 1
    27   14   16 ar
    28   15   29 1
    29   16   17 1
    30   17   18 2
    31   17   19 1
@<TRIPOS>Similarity
1.0721
@<TRIPOS>ShapeSim
0.6745
@<TRIPOS>PharmSim
0.3976
# END
# Name:		O=C(O)C1=C3C(C=CC=C3)=NC(C2=CC=CC(Br)=C2)=C1
# Created and modified by SHAFTS on Thu Mar 11 05:28:35 2021

# 

@<TRIPOS>MOLECULE
O=C(O)C1=C3C(C=CC=C3)=NC(C2=CC=CC(Br)=C2)=C1
   29    31     0
SMALL
USER_CHARGE


@<TRIPOS>ATOM
      1 O1          4.3947    2.5395    2.3077 O.co2     1 <1>        -0.5000
      2 C2          4.6373    1.4227    1.8730 C.2       1 <1>         0.5300
      3 O3          5.6696    0.8519    2.1953 O.co2     1 <1>        -0.5000
      4 C4          3.6809    0.7608    0.9635 C.ar      1 <1>        -0.0600
      5 C5          3.9948   -0.5204    0.3295 C.ar      1 <1>        -0.0800
      6 C6          5.2119   -1.1708    0.5586 C.ar      1 <1>        -0.0700
      7 C7          5.4636   -2.3635   -0.0523 C.ar      1 <1>        -0.1500
      8 C8          4.5237   -2.9430   -0.9020 C.ar      1 <1>        -0.1000
      9 C9          3.3299   -2.3374   -1.1469 C.ar      1 <1>        -0.1100
     10 C10         3.0340   -1.1050   -0.5342 C.ar      1 <1>         0.1200
     11 N11         1.8726   -0.4884   -0.7546 N.ar      1 <1>        -0.4800
     12 C12         1.5693    0.6636   -0.1953 C.ar      1 <1>         0.1900
     13 C13         0.2544    1.2802   -0.4948 C.ar      1 <1>        -0.0300
     14 C14        -0.0918    2.5027    0.0785 C.ar      1 <1>        -0.0800
     15 C15        -1.3170    3.0722   -0.2037 C.ar      1 <1>        -0.1200
     16 C16        -2.2011    2.4325   -1.0531 C.ar      1 <1>        -0.0900
     17 C17        -1.8633    1.2180   -1.6253 C.ar      1 <1>        -0.1000
     18 Br18       -3.0789    0.3502   -2.7852 Br        1 <1>        -0.0600
     19 C19        -0.6377    0.6422   -1.3554 C.ar      1 <1>        -0.0500
     20 C20         2.4441    1.3258    0.6794 C.ar      1 <1>        -0.1500
     21 H21         5.9479   -0.7306    1.2151 H         1 <1>         0.1700
     22 H22         6.4035   -2.8653    0.1244 H         1 <1>         0.1200
     23 H23         4.7464   -3.8882   -1.3747 H         1 <1>         0.1200
     24 H24         2.6126   -2.8002   -1.8085 H         1 <1>         0.1300
     25 H25         0.5974    3.0030    0.7425 H         1 <1>         0.1400
     26 H26        -1.5859    4.0194    0.2402 H         1 <1>         0.1400
     27 H27        -3.1588    2.8818   -1.2706 H         1 <1>         0.1300
     28 H28        -0.3747   -0.3052   -1.8021 H         1 <1>         0.1400
     29 H29         2.1623    2.2706    1.1206 H         1 <1>         0.1400
@<TRIPOS>BOND
     1    1    2 ar
     2    2    3 ar
     3    2    4 1
     4    4   20 ar
     5    4    5 ar
     6    5   10 ar
     7    5    6 ar
     8    6    7 ar
     9    6   21 1
    10    7    8 ar
    11    7   22 1
    12    8    9 ar
    13    8   23 1
    14    9   10 ar
    15    9   24 1
    16   10   11 ar
    17   11   12 ar
    18   12   13 1
    19   12   20 ar
    20   13   19 ar
    21   13   14 ar
    22   14   15 ar
    23   14   25 1
    24   15   16 ar
    25   15   26 1
    26   16   17 ar
    27   16   27 1
    28   17   18 1
    29   17   19 ar
    30   19   28 1
    31   20   29 1
@<TRIPOS>Similarity
1.0713
@<TRIPOS>ShapeSim
0.7045
@<TRIPOS>PharmSim
0.3668
# END
# Name:		O=C(O)C1=C3C(C=CC=C3)=NC(C2=CC=CC(F)=C2)=C1
# Created and modified by SHAFTS on Thu Mar 11 05:28:35 2021

# 

@<TRIPOS>MOLECULE
O=C(O)C1=C3C(C=CC=C3)=NC(C2=CC=CC(F)=C2)=C1
   29    31     0
SMALL
USER_CHARGE


@<TRIPOS>ATOM
      1 O1          4.2012    2.5343    2.2063 O.co2     1 <1>        -0.5000
      2 C2          4.4733    1.4182    1.7873 C.2       1 <1>         0.5300
      3 O3          5.5131    0.8732    2.1298 O.co2     1 <1>        -0.5000
      4 C4          3.5437    0.7262    0.8726 C.ar      1 <1>        -0.0600
      5 C5          3.8933   -0.5548    0.2572 C.ar      1 <1>        -0.0800
      6 C6          5.1208   -1.1764    0.5094 C.ar      1 <1>        -0.0700
      7 C7          5.4061   -2.3700   -0.0846 C.ar      1 <1>        -0.1500
      8 C8          4.4901   -2.9788   -0.9400 C.ar      1 <1>        -0.1000
      9 C9          3.2870   -2.4019   -1.2071 C.ar      1 <1>        -0.1100
     10 C10         2.9568   -1.1694   -0.6124 C.ar      1 <1>         0.1200
     11 N11         1.7854   -0.5804   -0.8548 N.ar      1 <1>        -0.4800
     12 C12         1.4503    0.5710   -0.3126 C.ar      1 <1>         0.1900
     13 C13         0.1268    1.1560   -0.6366 C.ar      1 <1>        -0.0100
     14 C14        -0.2529    2.3769   -0.0815 C.ar      1 <1>        -0.1100
     15 C15        -1.4858    2.9179   -0.3857 C.ar      1 <1>        -0.0900
     16 C16        -2.3453    2.2513   -1.2395 C.ar      1 <1>        -0.1500
     17 C17        -1.9743    1.0371   -1.7949 C.ar      1 <1>         0.0900
     18 F18        -2.8181    0.3907   -2.6287 F         1 <1>        -0.1400
     19 C19        -0.7396    0.4897   -1.5016 C.ar      1 <1>        -0.1200
     20 C20         2.2992    1.2616    0.5657 C.ar      1 <1>        -0.1500
     21 H21         5.8385   -0.7133    1.1704 H         1 <1>         0.1700
     22 H22         6.3540   -2.8494    0.1100 H         1 <1>         0.1200
     23 H23         4.7391   -3.9242   -1.3990 H         1 <1>         0.1200
     24 H24         2.5886   -2.8871   -1.8729 H         1 <1>         0.1300
     25 H25         0.4167    2.8988    0.5861 H         1 <1>         0.1400
     26 H26        -1.7800    3.8640    0.0442 H         1 <1>         0.1400
     27 H27        -3.3092    2.6782   -1.4740 H         1 <1>         0.1300
     28 H28        -0.4502   -0.4564   -1.9348 H         1 <1>         0.1500
     29 H29         1.9913    2.2046    0.9926 H         1 <1>         0.1500
@<TRIPOS>BOND
     1    1    2 ar
     2    2    3 ar
     3    2    4 1
     4    4   20 ar
     5    4    5 ar
     6    5   10 ar
     7    5    6 ar
     8    6    7 ar
     9    6   21 1
    10    7    8 ar
    11    7   22 1
    12    8    9 ar
    13    8   23 1
    14    9   10 ar
    15    9   24 1
    16   10   11 ar
    17   11   12 ar
    18   12   13 1
    19   12   20 ar
    20   13   19 ar
    21   13   14 ar
    22   14   15 ar
    23   14   25 1
    24   15   16 ar
    25   15   26 1
    26   16   17 ar
    27   16   27 1
    28   17   18 1
    29   17   19 ar
    30   19   28 1
    31   20   29 1
@<TRIPOS>Similarity
1.0705
@<TRIPOS>ShapeSim
0.6967
@<TRIPOS>PharmSim
0.3738
# END
# Name:		C1=CC2=C(C=C1O)OC3=C2C(=O)OC4=C3C=CC(=C4)O
# Created and modified by SHAFTS on Thu Mar 11 05:28:35 2021

# 

@<TRIPOS>MOLECULE
C1=CC2=C(C=C1O)OC3=C2C(=O)OC4=C3C=CC(=C4)O
   27    30     0
SMALL
USER_CHARGE


@<TRIPOS>ATOM
      1 O1          4.3245    2.4514    2.2164 O.2       1 <1>        -0.4371
      2 C2          3.9461    1.4359    1.6613 C.2       1 <1>         0.1972
      3 O3          4.8307    0.6895    0.9794 O.3       1 <1>        -0.2771
      4 C4          4.4697   -0.4466    0.3437 C.ar      1 <1>         0.0428
      5 C5          5.4119   -1.1911   -0.3507 C.ar      1 <1>        -0.0193
      6 C6          5.0307   -2.3543   -0.9994 C.ar      1 <1>        -0.0604
      7 O7          5.9554   -3.0809   -1.6784 O.3       1 <1>        -0.5597
      8 C8          3.7073   -2.7845   -0.9604 C.ar      1 <1>        -0.0637
      9 C9          2.7670   -2.0628   -0.2814 C.ar      1 <1>        -0.0855
     10 C10         3.1349   -0.8874    0.3781 C.ar      1 <1>        -0.0038
     11 C11         2.1437   -0.0926    1.1148 C.2       1 <1>         0.0478
     12 C12         2.5878    1.0630    1.7520 C.2       1 <1>         0.0642
     13 C13         1.3990    1.6441    2.3973 C.ar      1 <1>        -0.0353
     14 C14         1.1735    2.7772    3.1737 C.ar      1 <1>        -0.0750
     15 C15        -0.0955    3.0475    3.6381 C.ar      1 <1>        -0.0608
     16 C16        -1.1477    2.1908    3.3328 C.ar      1 <1>        -0.0290
     17 O17        -2.3962    2.4645    3.7954 O.3       1 <1>        -0.4357
     18 C18        -0.9333    1.0622    2.5614 C.ar      1 <1>        -0.0196
     19 C19         0.3397    0.7767    2.0862 C.ar      1 <1>         0.0402
     20 O20         0.8279   -0.2341    1.3340 O.3       1 <1>        -0.3386
     21 H21         6.4407   -0.8642   -0.3859 H         1 <1>         0.1137
     22 H22         3.4226   -3.6933   -1.4697 H         1 <1>         0.1023
     23 H23         1.7415   -2.4006   -0.2539 H         1 <1>         0.1320
     24 H24         1.9904    3.4422    3.4116 H         1 <1>         0.1446
     25 H25        -0.2731    3.9259    4.2407 H         1 <1>         0.1324
     26 H26        -2.9257    3.0109    3.1985 H         1 <1>         0.3567
     27 H27        -1.7566    0.4029    2.3290 H         1 <1>         0.1466
@<TRIPOS>BOND
     1    1    2 2
     2    2   12 1
     3    2    3 1
     4    3    4 1
     5    4   10 ar
     6    4    5 ar
     7    5    6 ar
     8    5   21 1
     9    6    7 1
    10    6    8 ar
    11    8    9 ar
    12    8   22 1
    13    9   10 ar
    14    9   23 1
    15   10   11 1
    16   11   20 1
    17   11   12 2
    18   12   13 1
    19   13   19 ar
    20   13   14 ar
    21   14   15 ar
    22   14   24 1
    23   15   16 ar
    24   15   25 1
    25   16   17 1
    26   16   18 ar
    27   17   26 1
    28   18   19 ar
    29   18   27 1
    30   19   20 1
@<TRIPOS>Similarity
1.0694
@<TRIPOS>ShapeSim
0.6339
@<TRIPOS>PharmSim
0.4355
# END
# Name:		C12=NC=CC=C1C=NC=C2
# Created and modified by SHAFTS on Thu Mar 11 05:28:35 2021

# 

@<TRIPOS>MOLECULE
C12=NC=CC=C1C=NC=C2
   16    17     0
SMALL
USER_CHARGE


@<TRIPOS>ATOM
      1 C1          2.4748    0.6261    1.4949 C.ar      1 <1>        -0.0593
      2 C2          3.8055    1.0335    1.4397 C.ar      1 <1>        -0.0294
      3 N3          4.7132    0.3447    0.7882 N.ar      1 <1>        -0.3905
      4 C4          4.3961   -0.7810    0.1481 C.ar      1 <1>        -0.0245
      5 C5          5.3541   -1.5351   -0.5555 C.ar      1 <1>        -0.0290
      6 C6          4.9574   -2.6751   -1.1850 C.ar      1 <1>        -0.0338
      7 N7          3.6994   -3.0927   -1.1542 N.ar      1 <1>        -0.3987
      8 C8          2.7526   -2.4419   -0.5186 C.ar      1 <1>        -0.0206
      9 C9          3.0582   -1.2542    0.1631 C.ar      1 <1>        -0.0200
     10 C10         2.0833   -0.5193    0.8598 C.ar      1 <1>        -0.0708
     11 H11         1.7530    1.2130    2.0434 H         1 <1>         0.1276
     12 H12         4.0985    1.9411    1.9466 H         1 <1>         0.2204
     13 H13         6.3848   -1.2149   -0.5956 H         1 <1>         0.1509
     14 H14         5.6893   -3.2566   -1.7259 H         1 <1>         0.1985
     15 H15         1.7408   -2.8198   -0.5209 H         1 <1>         0.2237
     16 H16         1.0556   -0.8498    0.8928 H         1 <1>         0.1554
@<TRIPOS>BOND
     1    1   10 ar
     2    1    2 ar
     3    1   11 1
     4    2    3 ar
     5    2   12 1
     6    3    4 ar
     7    4    9 ar
     8    4    5 ar
     9    5    6 ar
    10    5   13 1
    11    6    7 ar
    12    6   14 1
    13    7    8 ar
    14    8    9 ar
    15    8   15 1
    16    9   10 ar
    17   10   16 1
@<TRIPOS>Similarity
1.0669
@<TRIPOS>ShapeSim
0.6574
@<TRIPOS>PharmSim
0.4095
# END
# Name:		COC1=CC2=C(C=C1)N=C3C=CC(=CC3=C2SCCCN)Cl
# Created and modified by SHAFTS on Thu Mar 11 05:28:35 2021

# 

@<TRIPOS>MOLECULE
COC1=CC2=C(C=C1)N=C3C=CC(=CC3=C2SCCCN)Cl
   40    42     0
SMALL
USER_CHARGE


@<TRIPOS>ATOM
      1 C1          5.1513   -4.6617   -2.4835 C.3       1 <1>         0.0270
      2 O2          3.9916   -4.1031   -1.8628 O.3       1 <1>        -0.4121
      3 C3          4.1597   -2.9464   -1.1683 C.ar      1 <1>        -0.0017
      4 C4          5.4279   -2.3612   -1.0963 C.ar      1 <1>        -0.0406
      5 C5          5.6290   -1.2053   -0.4103 C.ar      1 <1>        -0.0357
      6 C6          4.5483   -0.5780    0.2422 C.ar      1 <1>        -0.0005
      7 N7          4.7356    0.5561    0.9172 N.ar      1 <1>        -0.3608
      8 C8          3.7372    1.1752    1.5448 C.ar      1 <1>        -0.0006
      9 C9          3.9715    2.3740    2.2494 C.ar      1 <1>        -0.0344
     10 C10         2.9446    2.9967    2.8856 C.ar      1 <1>        -0.0495
     11 C11         1.6523    2.4700    2.8560 C.ar      1 <1>        -0.0008
     12 Cl12        0.3699    3.2985    3.6822 Cl        1 <1>        -0.1278
     13 C13         1.3848    1.3146    2.1868 C.ar      1 <1>        -0.0467
     14 C14         2.4213    0.6426    1.5170 C.ar      1 <1>        -0.0236
     15 C15         2.1734   -0.5546    0.8160 C.ar      1 <1>        -0.0255
     16 S16         0.5576   -1.2545    0.7521 S.3       1 <1>        -0.1966
     17 C17        -0.0778   -0.4430   -0.7358 C.3       1 <1>        -0.0162
     18 C18        -1.5107   -0.9102   -0.9991 C.3       1 <1>        -0.0630
     19 C19        -2.0478   -0.2242   -2.2568 C.3       1 <1>        -0.1159
     20 N20        -3.4236   -0.6728   -2.5097 N.4       1 <1>         0.4450
     21 H21        -3.4322   -1.6730   -2.6423 H         1 <1>         0.1479
     22 H22        -4.0059   -0.4332   -1.7211 H         1 <1>         0.1479
     23 H23        -3.7779   -0.2204   -3.3390 H         1 <1>         0.1479
     24 C24         3.2619   -1.1734    0.1675 C.ar      1 <1>        -0.0255
     25 C25         3.0876   -2.3659   -0.5538 C.ar      1 <1>        -0.0379
     26 H26         5.5602   -3.9477   -3.1984 H         1 <1>         0.0910
     27 H27         5.8997   -4.8830   -1.7226 H         1 <1>         0.0910
     28 H28         4.8785   -5.5803   -3.0030 H         1 <1>         0.1272
     29 H29         6.2611   -2.8357   -1.5935 H         1 <1>         0.1392
     30 H30         6.6155   -0.7682   -0.3648 H         1 <1>         0.1652
     31 H31         4.9649    2.7963    2.2835 H         1 <1>         0.1629
     32 H32         3.1317    3.9143    3.4235 H         1 <1>         0.1489
     33 H33         0.3810    0.9167    2.1709 H         1 <1>         0.1477
     34 H34        -0.0686    0.6375   -0.5924 H         1 <1>         0.0818
     35 H35         0.5511   -0.7018   -1.5876 H         1 <1>         0.0818
     36 H36        -1.5200   -1.9907   -1.1424 H         1 <1>         0.0686
     37 H37        -2.1396   -0.6514   -0.1473 H         1 <1>         0.0686
     38 H38        -2.0386    0.8563   -2.1134 H         1 <1>         0.0938
     39 H39        -1.4190   -0.4831   -3.1086 H         1 <1>         0.0938
     40 H40         2.1114   -2.8232   -0.6190 H         1 <1>         0.1380
@<TRIPOS>BOND
     1    1    2 1
     2    1   26 1
     3    1   27 1
     4    1   28 1
     5    2    3 1
     6    3   25 ar
     7    3    4 ar
     8    4    5 ar
     9    4   29 1
    10    5    6 ar
    11    5   30 1
    12    6   24 ar
    13    6    7 ar
    14    7    8 ar
    15    8   14 ar
    16    8    9 ar
    17    9   10 ar
    18    9   31 1
    19   10   11 ar
    20   10   32 1
    21   11   12 1
    22   11   13 ar
    23   13   14 ar
    24   13   33 1
    25   14   15 ar
    26   15   16 1
    27   15   24 ar
    28   16   17 1
    29   17   18 1
    30   17   34 1
    31   17   35 1
    32   18   19 1
    33   18   36 1
    34   18   37 1
    35   19   20 1
    36   19   38 1
    37   19   39 1
    38   20   21 1
    39   20   22 1
    40   20   23 1
    41   24   25 ar
    42   25   40 1
@<TRIPOS>Similarity
1.0668
@<TRIPOS>ShapeSim
0.7725
@<TRIPOS>PharmSim
0.2943
# END
# Name:		C1C(OC2=CC(=CC(=C2C1=O)O)O)C3=CC=C(C=C3)O
# Created and modified by SHAFTS on Thu Mar 11 05:28:35 2021

# 

@<TRIPOS>MOLECULE
C1C(OC2=CC(=CC(=C2C1=O)O)O)C3=CC=C(C=C3)O
   32    34     0
SMALL
USER_CHARGE


@<TRIPOS>ATOM
      1 O1          0.9114   -0.4990    1.4380 O.2       1 <1>        -0.4549
      2 C2          2.0197   -0.0771    1.1792 C.2       1 <1>         0.0866
      3 C3          2.4707    1.3040    1.6195 C.3       1 <1>         0.0706
      4 C4          3.9309    1.1802    2.0785 C.3       1 <1>         0.0635
      5 H5          3.9901    0.4913    2.9212 H         1 <1>         0.1402
      6 C6          4.4427    2.5339    2.4985 C.ar      1 <1>        -0.0645
      7 C7          4.8512    3.4446    1.5416 C.ar      1 <1>        -0.0822
      8 C8          5.3207    4.6863    1.9241 C.ar      1 <1>        -0.0655
      9 C9          5.3818    5.0192    3.2695 C.ar      1 <1>        -0.0394
     10 O10         5.8429    6.2403    3.6482 O.3       1 <1>        -0.4395
     11 C11         4.9709    4.1039    4.2275 C.ar      1 <1>        -0.0649
     12 C12         4.4977    2.8653    3.8397 C.ar      1 <1>        -0.0828
     13 O13         4.7243    0.6837    1.0006 O.3       1 <1>        -0.3858
     14 C14         4.3335   -0.4522    0.3761 C.ar      1 <1>         0.0330
     15 C15         5.2574   -1.2100   -0.3209 C.ar      1 <1>        -0.0094
     16 C16         4.8607   -2.3725   -0.9701 C.ar      1 <1>        -0.0128
     17 O17         5.7762   -3.1076   -1.6499 O.3       1 <1>        -0.4242
     18 C18         3.5365   -2.7903   -0.9299 C.ar      1 <1>        -0.0189
     19 C19         2.5965   -2.0490   -0.2360 C.ar      1 <1>        -0.0008
     20 O20         1.3026   -2.4527   -0.1953 O.3       1 <1>        -0.4187
     21 C21         2.9942   -0.8781    0.4302 C.ar      1 <1>         0.0588
     22 H22         2.4020    2.0008    0.7840 H         1 <1>         0.1104
     23 H23         1.8502    1.6514    2.4455 H         1 <1>         0.1104
     24 H24         4.8034    3.1849    0.4943 H         1 <1>         0.1330
     25 H25         5.6403    5.3970    1.1763 H         1 <1>         0.1246
     26 H26         5.1553    6.9169    3.7151 H         1 <1>         0.3541
     27 H27         5.0179    4.3606    5.2756 H         1 <1>         0.1267
     28 H28         4.1774    2.1525    4.5852 H         1 <1>         0.1309
     29 H29         6.2902   -0.8967   -0.3609 H         1 <1>         0.1440
     30 H30         6.2105   -3.7867   -1.1157 H         1 <1>         0.3676
     31 H31         3.2403   -3.6946   -1.4406 H         1 <1>         0.1388
     32 H32         1.0964   -3.0383    0.5461 H         1 <1>         0.3710
@<TRIPOS>BOND
     1    1    2 2
     2    2   21 1
     3    2    3 1
     4    3    4 1
     5    3   22 1
     6    3   23 1
     7    4    5 1
     8    4    6 1
     9    4   13 1
    10    6   12 ar
    11    6    7 ar
    12    7    8 ar
    13    7   24 1
    14    8    9 ar
    15    8   25 1
    16    9   10 1
    17    9   11 ar
    18   10   26 1
    19   11   12 ar
    20   11   27 1
    21   12   28 1
    22   13   14 1
    23   14   21 ar
    24   14   15 ar
    25   15   16 ar
    26   15   29 1
    27   16   17 1
    28   16   18 ar
    29   17   30 1
    30   18   19 ar
    31   18   31 1
    32   19   20 1
    33   19   21 ar
    34   20   32 1
@<TRIPOS>Similarity
1.0653
@<TRIPOS>ShapeSim
0.6300
@<TRIPOS>PharmSim
0.4353
# END
# Name:		C1C(OC2=CC(=CC(=C2C1=O)O)O)C3=CC=C(C=C3)O
# Created and modified by SHAFTS on Thu Mar 11 05:28:35 2021

# 

@<TRIPOS>MOLECULE
C1C(OC2=CC(=CC(=C2C1=O)O)O)C3=CC=C(C=C3)O
   32    34     0
SMALL
USER_CHARGE


@<TRIPOS>ATOM
      1 O1          0.9114   -0.4990    1.4380 O.2       1 <1>        -0.4549
      2 C2          2.0197   -0.0771    1.1792 C.2       1 <1>         0.0866
      3 C3          2.4707    1.3040    1.6195 C.3       1 <1>         0.0706
      4 C4          3.9309    1.1802    2.0785 C.3       1 <1>         0.0635
      5 H5          3.9901    0.4913    2.9212 H         1 <1>         0.1402
      6 C6          4.4427    2.5339    2.4985 C.ar      1 <1>        -0.0645
      7 C7          4.8512    3.4446    1.5416 C.ar      1 <1>        -0.0822
      8 C8          5.3207    4.6863    1.9241 C.ar      1 <1>        -0.0655
      9 C9          5.3818    5.0192    3.2695 C.ar      1 <1>        -0.0394
     10 O10         5.8429    6.2403    3.6482 O.3       1 <1>        -0.4395
     11 C11         4.9709    4.1039    4.2275 C.ar      1 <1>        -0.0649
     12 C12         4.4977    2.8653    3.8397 C.ar      1 <1>        -0.0828
     13 O13         4.7243    0.6837    1.0006 O.3       1 <1>        -0.3858
     14 C14         4.3335   -0.4522    0.3761 C.ar      1 <1>         0.0330
     15 C15         5.2574   -1.2100   -0.3209 C.ar      1 <1>        -0.0094
     16 C16         4.8607   -2.3725   -0.9701 C.ar      1 <1>        -0.0128
     17 O17         5.7762   -3.1076   -1.6499 O.3       1 <1>        -0.4242
     18 C18         3.5365   -2.7903   -0.9299 C.ar      1 <1>        -0.0189
     19 C19         2.5965   -2.0490   -0.2360 C.ar      1 <1>        -0.0008
     20 O20         1.3026   -2.4527   -0.1953 O.3       1 <1>        -0.4187
     21 C21         2.9942   -0.8781    0.4302 C.ar      1 <1>         0.0588
     22 H22         2.4020    2.0008    0.7840 H         1 <1>         0.1104
     23 H23         1.8502    1.6514    2.4455 H         1 <1>         0.1104
     24 H24         4.8034    3.1849    0.4943 H         1 <1>         0.1330
     25 H25         5.6403    5.3970    1.1763 H         1 <1>         0.1246
     26 H26         5.1553    6.9169    3.7151 H         1 <1>         0.3541
     27 H27         5.0179    4.3606    5.2756 H         1 <1>         0.1267
     28 H28         4.1774    2.1525    4.5852 H         1 <1>         0.1309
     29 H29         6.2902   -0.8967   -0.3609 H         1 <1>         0.1440
     30 H30         6.2105   -3.7867   -1.1157 H         1 <1>         0.3676
     31 H31         3.2403   -3.6946   -1.4406 H         1 <1>         0.1388
     32 H32         1.0964   -3.0383    0.5461 H         1 <1>         0.3710
@<TRIPOS>BOND
     1    1    2 2
     2    2   21 1
     3    2    3 1
     4    3    4 1
     5    3   22 1
     6    3   23 1
     7    4    5 1
     8    4    6 1
     9    4   13 1
    10    6   12 ar
    11    6    7 ar
    12    7    8 ar
    13    7   24 1
    14    8    9 ar
    15    8   25 1
    16    9   10 1
    17    9   11 ar
    18   10   26 1
    19   11   12 ar
    20   11   27 1
    21   12   28 1
    22   13   14 1
    23   14   21 ar
    24   14   15 ar
    25   15   16 ar
    26   15   29 1
    27   16   17 1
    28   16   18 ar
    29   17   30 1
    30   18   19 ar
    31   18   31 1
    32   19   20 1
    33   19   21 ar
    34   20   32 1
@<TRIPOS>Similarity
1.0653
@<TRIPOS>ShapeSim
0.6300
@<TRIPOS>PharmSim
0.4353
# END
# Name:		C1=CC=C(C=C1)C(=O)C=CC2=CC=CC=C2O
# Created and modified by SHAFTS on Thu Mar 11 05:28:35 2021

# 

@<TRIPOS>MOLECULE
C1=CC=C(C=C1)C(=O)C=CC2=CC=CC=C2O
   29    30     0
SMALL
USER_CHARGE


@<TRIPOS>ATOM
      1 O1          0.0418    2.1222   -0.6384 O.2       1 <1>        -0.4648
      2 C2         -0.1418    1.0061   -1.0893 C.2       1 <1>         0.0809
      3 C3          0.8708    0.0208   -0.9764 C.2       1 <1>        -0.0148
      4 C4          2.0413    0.3203   -0.3678 C.2       1 <1>        -0.0627
      5 C5          3.0902   -0.7003   -0.2508 C.ar      1 <1>        -0.0432
      6 C6          2.8862   -1.9830   -0.7725 C.ar      1 <1>        -0.0849
      7 C7          3.8753   -2.9352   -0.6587 C.ar      1 <1>        -0.0989
      8 C8          5.0716   -2.6298   -0.0302 C.ar      1 <1>        -0.0965
      9 C9          5.2872   -1.3680    0.4901 C.ar      1 <1>        -0.0649
     10 C10         4.3076   -0.3942    0.3805 C.ar      1 <1>        -0.0244
     11 O11         4.5182    0.8452    0.8905 O.3       1 <1>        -0.4294
     12 C12        -1.4240    0.6769   -1.7495 C.ar      1 <1>        -0.0089
     13 C13        -1.6399   -0.6034   -2.2624 C.ar      1 <1>        -0.0833
     14 C14        -2.8378   -0.9040   -2.8769 C.ar      1 <1>        -0.0999
     15 C15        -3.8243    0.0604   -2.9855 C.ar      1 <1>        -0.1014
     16 C16        -3.6167    1.3313   -2.4791 C.ar      1 <1>        -0.0968
     17 C17        -2.4255    1.6433   -1.8572 C.ar      1 <1>        -0.0792
     18 H18         0.7079   -0.9691   -1.3763 H         1 <1>         0.1182
     19 H19         2.2042    1.3103    0.0322 H         1 <1>         0.1579
     20 H20         1.9552   -2.2258   -1.2629 H         1 <1>         0.1307
     21 H21         3.7171   -3.9249   -1.0612 H         1 <1>         0.1196
     22 H22         5.8409   -3.3831    0.0539 H         1 <1>         0.1261
     23 H23         6.2227   -1.1390    0.9786 H         1 <1>         0.1247
     24 H24         4.9232    1.4636    0.2670 H         1 <1>         0.3661
     25 H25        -0.8706   -1.3568   -2.1786 H         1 <1>         0.1294
     26 H26        -3.0060   -1.8939   -3.2745 H         1 <1>         0.1195
     27 H27        -4.7602   -0.1800   -3.4678 H         1 <1>         0.1263
     28 H28        -4.3907    2.0793   -2.5672 H         1 <1>         0.1204
     29 H29        -2.2650    2.6355   -1.4622 H         1 <1>         0.1344
@<TRIPOS>BOND
     1    1    2 2
     2    2    3 1
     3    2   12 1
     4    3    4 2
     5    3   18 1
     6    4    5 1
     7    4   19 1
     8    5   10 ar
     9    5    6 ar
    10    6    7 ar
    11    6   20 1
    12    7    8 ar
    13    7   21 1
    14    8    9 ar
    15    8   22 1
    16    9   10 ar
    17    9   23 1
    18   10   11 1
    19   11   24 1
    20   12   17 ar
    21   12   13 ar
    22   13   14 ar
    23   13   25 1
    24   14   15 ar
    25   14   26 1
    26   15   16 ar
    27   15   27 1
    28   16   17 ar
    29   16   28 1
    30   17   29 1
@<TRIPOS>Similarity
1.0641
@<TRIPOS>ShapeSim
0.7238
@<TRIPOS>PharmSim
0.3403
# END
# Name:		CN1C2C3=C(CCN2C(=O)C4=CC=CC=C41)C5=CC=CC=C5N3
# Created and modified by SHAFTS on Thu Mar 11 05:28:35 2021

# 

@<TRIPOS>MOLECULE
CN1C2C3=C(CCN2C(=O)C4=CC=CC=C41)C5=CC=CC=C5N3
   40    44     0
SMALL
USER_CHARGE


@<TRIPOS>ATOM
      1 C1         -0.0670   -2.1223   -1.4410 C.3       1 <1>        -0.0182
      2 N2         -0.0144   -0.9645   -0.5449 N.pl3     1 <1>        -0.3698
      3 C3          1.2076   -0.6133   -0.0036 C.ar      1 <1>        -0.0247
      4 C4          2.3419   -1.3767   -0.2458 C.ar      1 <1>        -0.0611
      5 C5          3.5484   -1.0169    0.3205 C.ar      1 <1>        -0.0946
      6 C6          3.6403    0.1024    1.1322 C.ar      1 <1>        -0.0941
      7 C7          2.5262    0.8772    1.3789 C.ar      1 <1>        -0.0601
      8 C8          1.3040    0.5295    0.8068 C.ar      1 <1>         0.0629
      9 C9          0.1001    1.3482    1.0237 C.2       1 <1>         0.1305
     10 O10         0.1596    2.3407    1.7238 O.2       1 <1>        -0.4727
     11 N11        -1.0649    1.0019    0.4495 N.am      1 <1>        -0.3058
     12 C12        -2.2062    1.9308    0.5371 C.3       1 <1>         0.0047
     13 C13        -2.5610    2.4143   -0.8741 C.3       1 <1>        -0.0157
     14 C14        -2.5765    1.2342   -1.8111 C.2       1 <1>        -0.0723
     15 C15        -1.9879    0.0440   -1.5570 C.2       1 <1>        -0.0253
     16 N16        -2.1816   -0.8066   -2.6119 N.pl3     1 <1>        -0.3611
     17 C17        -2.9128   -0.1815   -3.5808 C.ar      1 <1>        -0.0637
     18 C18        -3.3706   -0.6063   -4.8259 C.ar      1 <1>        -0.0736
     19 C19        -4.1025    0.3041   -5.5688 C.ar      1 <1>        -0.0996
     20 C20        -4.3757    1.5822   -5.1110 C.ar      1 <1>        -0.1026
     21 C21        -3.9371    2.0285   -3.8884 C.ar      1 <1>        -0.0899
     22 C22        -3.1947    1.1295   -3.1171 C.ar      1 <1>        -0.0680
     23 C23        -1.2444   -0.2485   -0.2803 C.3       1 <1>         0.0538
     24 H24        -1.8707   -0.8993    0.3298 H         1 <1>         0.1977
     25 H25         0.1043   -1.7959   -2.4668 H         1 <1>         0.0866
     26 H26         0.7028   -2.8389   -1.1544 H         1 <1>         0.1082
     27 H27        -1.0472   -2.5936   -1.3685 H         1 <1>         0.0938
     28 H28         2.2802   -2.2513   -0.8764 H         1 <1>         0.1182
     29 H29         4.4283   -1.6132    0.1295 H         1 <1>         0.1352
     30 H30         4.5888    0.3691    1.5743 H         1 <1>         0.1117
     31 H31         2.6007    1.7489    2.0123 H         1 <1>         0.1526
     32 H32        -3.0628    1.4168    0.9731 H         1 <1>         0.1096
     33 H33        -1.9354    2.7845    1.1583 H         1 <1>         0.1312
     34 H34        -3.5451    2.8830   -0.8620 H         1 <1>         0.0855
     35 H35        -1.8166    3.1364   -1.2097 H         1 <1>         0.0783
     36 H36        -1.8490   -1.7163   -2.6635 H         1 <1>         0.3243
     37 H37        -3.1638   -1.6000   -5.1950 H         1 <1>         0.1277
     38 H38        -4.4731    0.0076   -6.5390 H         1 <1>         0.1185
     39 H39        -4.9522    2.2491   -5.7349 H         1 <1>         0.1078
     40 H40        -4.1548    3.0272   -3.5396 H         1 <1>         0.1344
@<TRIPOS>BOND
     1    1    2 1
     2    1   25 1
     3    1   26 1
     4    1   27 1
     5    2   23 1
     6    2    3 1
     7    3    8 ar
     8    3    4 ar
     9    4    5 ar
    10    4   28 1
    11    5    6 ar
    12    5   29 1
    13    6    7 ar
    14    6   30 1
    15    7    8 ar
    16    7   31 1
    17    8    9 1
    18    9   10 2
    19    9   11 am
    20   11   23 1
    21   11   12 1
    22   12   13 1
    23   12   32 1
    24   12   33 1
    25   13   14 1
    26   13   34 1
    27   13   35 1
    28   14   22 1
    29   14   15 2
    30   15   16 1
    31   15   23 1
    32   16   17 1
    33   16   36 1
    34   17   22 ar
    35   17   18 ar
    36   18   19 ar
    37   18   37 1
    38   19   20 ar
    39   19   38 1
    40   20   21 ar
    41   20   39 1
    42   21   22 ar
    43   21   40 1
    44   23   24 1
@<TRIPOS>Similarity
1.0620
@<TRIPOS>ShapeSim
0.7253
@<TRIPOS>PharmSim
0.3367
# END
# Name:		CC1=CC2=NNC(=O)N2C3=CC=CC=C13
# Created and modified by SHAFTS on Thu Mar 11 05:28:35 2021

# 

@<TRIPOS>MOLECULE
CC1=CC2=NNC(=O)N2C3=CC=CC=C13
   24    26     0
SMALL
USER_CHARGE


@<TRIPOS>ATOM
      1 C1          0.7874   -0.9897    0.8642 C.3       1 <1>        -0.0247
      2 C2          2.1843   -0.4248    0.8936 C.2       1 <1>        -0.0652
      3 C3          2.4423    0.7195    1.5594 C.2       1 <1>        -0.0014
      4 C4          3.8041    1.2592    1.5815 C.2       1 <1>         0.0818
      5 N5          4.3006    2.3336    2.1473 N.2       1 <1>        -0.2939
      6 N6          5.6701    2.3821    1.8561 N.am      1 <1>        -0.2208
      7 C7          5.9645    1.3042    1.1021 C.2       1 <1>         0.1919
      8 O8          7.0628    1.0159    0.6602 O.2       1 <1>        -0.4530
      9 N9          4.8264    0.6016    0.9234 N.am      1 <1>        -0.2153
     10 C10         4.5746   -0.5795    0.2331 C.ar      1 <1>         0.0035
     11 C11         5.6053   -1.2361   -0.4262 C.ar      1 <1>        -0.0525
     12 C12         5.3513   -2.4081   -1.1097 C.ar      1 <1>        -0.0884
     13 C13         4.0716   -2.9393   -1.1454 C.ar      1 <1>        -0.0921
     14 C14         3.0354   -2.3029   -0.4976 C.ar      1 <1>        -0.0766
     15 C15         3.2788   -1.1176    0.2029 C.ar      1 <1>        -0.0352
     16 H16         0.6497   -1.6624    1.7107 H         1 <1>         0.0737
     17 H17         0.0649   -0.1759    0.9256 H         1 <1>         0.0665
     18 H18         0.6374   -1.5395   -0.0650 H         1 <1>         0.0665
     19 H19         1.6467    1.2371    2.0747 H         1 <1>         0.1701
     20 H20         6.2933    3.0674    2.1443 H         1 <1>         0.4039
     21 H21         6.6057   -0.8295   -0.4047 H         1 <1>         0.1441
     22 H22         6.1561   -2.9152   -1.6211 H         1 <1>         0.1369
     23 H23         3.8856   -3.8566   -1.6843 H         1 <1>         0.1282
     24 H24         2.0397   -2.7200   -0.5279 H         1 <1>         0.1418
@<TRIPOS>BOND
     1    1    2 1
     2    1   16 1
     3    1   17 1
     4    1   18 1
     5    2   15 1
     6    2    3 2
     7    3    4 1
     8    3   19 1
     9    4    9 1
    10    4    5 2
    11    5    6 1
    12    6    7 am
    13    6   20 1
    14    7    8 2
    15    7    9 am
    16    9   10 1
    17   10   15 ar
    18   10   11 ar
    19   11   12 ar
    20   11   21 1
    21   12   13 ar
    22   12   22 1
    23   13   14 ar
    24   13   23 1
    25   14   15 ar
    26   14   24 1
@<TRIPOS>Similarity
1.0610
@<TRIPOS>ShapeSim
0.6931
@<TRIPOS>PharmSim
0.3679
# END
# Name:		C1=CC(=C(C=C1/C=C/C2=CC(=CC(=C2)O)O)O)O
# Created and modified by SHAFTS on Thu Mar 11 05:28:35 2021

# 

@<TRIPOS>MOLECULE
C1=CC(=C(C=C1/C=C/C2=CC(=CC(=C2)O)O)O)O
   30    31     0
SMALL
USER_CHARGE


@<TRIPOS>ATOM
      1 O1          5.6125   -3.0273   -1.7554 O.3       1 <1>        -0.4377
      2 C2          4.7639   -2.0637   -1.3099 C.ar      1 <1>        -0.0296
      3 C3          3.4668   -2.0088   -1.7910 C.ar      1 <1>        -0.0542
      4 C4          2.5955   -1.0180   -1.3324 C.ar      1 <1>        -0.0766
      5 C5          1.2136   -0.9553   -1.8410 C.2       1 <1>        -0.0860
      6 C6          0.3780   -0.0018   -1.3986 C.2       1 <1>        -0.0875
      7 C7         -1.0036    0.0609   -1.9071 C.ar      1 <1>        -0.0819
      8 C8         -1.4478   -0.8744   -2.8452 C.ar      1 <1>        -0.0855
      9 C9         -2.7414   -0.8138   -3.3198 C.ar      1 <1>        -0.0605
     10 C10        -3.6038    0.1740   -2.8680 C.ar      1 <1>        -0.0076
     11 O11        -4.8778    0.2290   -3.3391 O.3       1 <1>        -0.4324
     12 C12        -3.1680    1.1100   -1.9319 C.ar      1 <1>        -0.0049
     13 O13        -4.0171    2.0764   -1.4908 O.3       1 <1>        -0.4319
     14 C14        -1.8751    1.0528   -1.4477 C.ar      1 <1>        -0.0523
     15 C15         3.0382   -0.0869   -0.3898 C.ar      1 <1>        -0.0563
     16 C16         4.3373   -0.1502    0.0852 C.ar      1 <1>        -0.0312
     17 O17         4.7692    0.7550    1.0022 O.3       1 <1>        -0.4381
     18 C18         5.1973   -1.1400   -0.3694 C.ar      1 <1>        -0.0333
     19 H19         5.5905   -3.8420   -1.2348 H         1 <1>         0.3544
     20 H20         3.1292   -2.7306   -2.5201 H         1 <1>         0.1372
     21 H21         0.8730   -1.6762   -2.5694 H         1 <1>         0.1270
     22 H22         0.7185    0.7192   -0.6701 H         1 <1>         0.1281
     23 H23        -0.7782   -1.6445   -3.1990 H         1 <1>         0.1276
     24 H24        -3.0835   -1.5371   -4.0452 H         1 <1>         0.1351
     25 H25        -5.5114   -0.2859   -2.8208 H         1 <1>         0.3564
     26 H26        -4.5272    1.8247   -0.7088 H         1 <1>         0.3564
     27 H27        -1.5363    1.7773   -0.7220 H         1 <1>         0.1397
     28 H28         2.3685    0.6813   -0.0325 H         1 <1>         0.1346
     29 H29         4.6297    0.4827    1.9195 H         1 <1>         0.3544
     30 H30         6.2098   -1.1861    0.0035 H         1 <1>         0.1367
@<TRIPOS>BOND
     1    1    2 1
     2    1   19 1
     3    2   18 ar
     4    2    3 ar
     5    3    4 ar
     6    3   20 1
     7    4    5 1
     8    4   15 ar
     9    5    6 2
    10    5   21 1
    11    6    7 1
    12    6   22 1
    13    7   14 ar
    14    7    8 ar
    15    8    9 ar
    16    8   23 1
    17    9   10 ar
    18    9   24 1
    19   10   11 1
    20   10   12 ar
    21   11   25 1
    22   12   13 1
    23   12   14 ar
    24   13   26 1
    25   14   27 1
    26   15   16 ar
    27   15   28 1
    28   16   17 1
    29   16   18 ar
    30   17   29 1
    31   18   30 1
@<TRIPOS>Similarity
1.0598
@<TRIPOS>ShapeSim
0.6620
@<TRIPOS>PharmSim
0.3978
# END
# Name:		C1=CC(=C(C=C1C=CC2=CC(=CC(=C2)O)O)O)O
# Created and modified by SHAFTS on Thu Mar 11 05:28:35 2021

# 

@<TRIPOS>MOLECULE
C1=CC(=C(C=C1C=CC2=CC(=CC(=C2)O)O)O)O
   30    31     0
SMALL
USER_CHARGE


@<TRIPOS>ATOM
      1 O1          5.6125   -3.0273   -1.7554 O.3       1 <1>        -0.4377
      2 C2          4.7639   -2.0637   -1.3099 C.ar      1 <1>        -0.0296
      3 C3          3.4668   -2.0088   -1.7910 C.ar      1 <1>        -0.0542
      4 C4          2.5955   -1.0180   -1.3324 C.ar      1 <1>        -0.0766
      5 C5          1.2136   -0.9553   -1.8410 C.2       1 <1>        -0.0860
      6 C6          0.3780   -0.0018   -1.3986 C.2       1 <1>        -0.0875
      7 C7         -1.0036    0.0609   -1.9071 C.ar      1 <1>        -0.0819
      8 C8         -1.4478   -0.8744   -2.8452 C.ar      1 <1>        -0.0855
      9 C9         -2.7414   -0.8138   -3.3198 C.ar      1 <1>        -0.0605
     10 C10        -3.6038    0.1740   -2.8680 C.ar      1 <1>        -0.0076
     11 O11        -4.8778    0.2290   -3.3391 O.3       1 <1>        -0.4324
     12 C12        -3.1680    1.1100   -1.9319 C.ar      1 <1>        -0.0049
     13 O13        -4.0171    2.0764   -1.4908 O.3       1 <1>        -0.4319
     14 C14        -1.8751    1.0528   -1.4477 C.ar      1 <1>        -0.0523
     15 C15         3.0382   -0.0869   -0.3898 C.ar      1 <1>        -0.0563
     16 C16         4.3373   -0.1502    0.0852 C.ar      1 <1>        -0.0312
     17 O17         4.7692    0.7550    1.0022 O.3       1 <1>        -0.4381
     18 C18         5.1973   -1.1400   -0.3694 C.ar      1 <1>        -0.0333
     19 H19         5.5905   -3.8420   -1.2348 H         1 <1>         0.3544
     20 H20         3.1292   -2.7306   -2.5201 H         1 <1>         0.1372
     21 H21         0.8730   -1.6762   -2.5694 H         1 <1>         0.1270
     22 H22         0.7185    0.7192   -0.6701 H         1 <1>         0.1281
     23 H23        -0.7782   -1.6445   -3.1990 H         1 <1>         0.1276
     24 H24        -3.0835   -1.5371   -4.0452 H         1 <1>         0.1351
     25 H25        -5.5114   -0.2859   -2.8208 H         1 <1>         0.3564
     26 H26        -4.5272    1.8247   -0.7088 H         1 <1>         0.3564
     27 H27        -1.5363    1.7773   -0.7220 H         1 <1>         0.1397
     28 H28         2.3685    0.6813   -0.0325 H         1 <1>         0.1346
     29 H29         4.6297    0.4827    1.9195 H         1 <1>         0.3544
     30 H30         6.2098   -1.1861    0.0035 H         1 <1>         0.1367
@<TRIPOS>BOND
     1    1    2 1
     2    1   19 1
     3    2   18 ar
     4    2    3 ar
     5    3    4 ar
     6    3   20 1
     7    4    5 1
     8    4   15 ar
     9    5    6 2
    10    5   21 1
    11    6    7 1
    12    6   22 1
    13    7   14 ar
    14    7    8 ar
    15    8    9 ar
    16    8   23 1
    17    9   10 ar
    18    9   24 1
    19   10   11 1
    20   10   12 ar
    21   11   25 1
    22   12   13 1
    23   12   14 ar
    24   13   26 1
    25   14   27 1
    26   15   16 ar
    27   15   28 1
    28   16   17 1
    29   16   18 ar
    30   17   29 1
    31   18   30 1
@<TRIPOS>Similarity
1.0598
@<TRIPOS>ShapeSim
0.6620
@<TRIPOS>PharmSim
0.3978
# END
# Name:		OC1=CC(/C=C/C(C=C2O)=CC=C2O)=CC(O)=C1
# Created and modified by SHAFTS on Thu Mar 11 05:28:35 2021

# 

@<TRIPOS>MOLECULE
OC1=CC(/C=C/C(C=C2O)=CC=C2O)=CC(O)=C1
   30    31     0
SMALL
USER_CHARGE


@<TRIPOS>ATOM
      1 O1          5.6125   -3.0273   -1.7554 O.3       1 <1>        -0.4377
      2 C2          4.7639   -2.0637   -1.3099 C.ar      1 <1>        -0.0296
      3 C3          3.4668   -2.0088   -1.7910 C.ar      1 <1>        -0.0542
      4 C4          2.5955   -1.0180   -1.3324 C.ar      1 <1>        -0.0766
      5 C5          1.2136   -0.9553   -1.8410 C.2       1 <1>        -0.0860
      6 C6          0.3780   -0.0018   -1.3986 C.2       1 <1>        -0.0875
      7 C7         -1.0036    0.0609   -1.9071 C.ar      1 <1>        -0.0819
      8 C8         -1.4478   -0.8744   -2.8452 C.ar      1 <1>        -0.0855
      9 C9         -2.7414   -0.8138   -3.3198 C.ar      1 <1>        -0.0605
     10 C10        -3.6038    0.1740   -2.8680 C.ar      1 <1>        -0.0076
     11 O11        -4.8778    0.2290   -3.3391 O.3       1 <1>        -0.4324
     12 C12        -3.1680    1.1100   -1.9319 C.ar      1 <1>        -0.0049
     13 O13        -4.0171    2.0764   -1.4908 O.3       1 <1>        -0.4319
     14 C14        -1.8751    1.0528   -1.4477 C.ar      1 <1>        -0.0523
     15 C15         3.0382   -0.0869   -0.3898 C.ar      1 <1>        -0.0563
     16 C16         4.3373   -0.1502    0.0852 C.ar      1 <1>        -0.0312
     17 O17         4.7692    0.7550    1.0022 O.3       1 <1>        -0.4381
     18 C18         5.1973   -1.1400   -0.3694 C.ar      1 <1>        -0.0333
     19 H19         5.5905   -3.8420   -1.2348 H         1 <1>         0.3544
     20 H20         3.1292   -2.7306   -2.5201 H         1 <1>         0.1372
     21 H21         0.8730   -1.6762   -2.5694 H         1 <1>         0.1270
     22 H22         0.7185    0.7192   -0.6701 H         1 <1>         0.1281
     23 H23        -0.7782   -1.6445   -3.1990 H         1 <1>         0.1276
     24 H24        -3.0835   -1.5371   -4.0452 H         1 <1>         0.1351
     25 H25        -5.5114   -0.2859   -2.8208 H         1 <1>         0.3564
     26 H26        -4.5272    1.8247   -0.7088 H         1 <1>         0.3564
     27 H27        -1.5363    1.7773   -0.7220 H         1 <1>         0.1397
     28 H28         2.3685    0.6813   -0.0325 H         1 <1>         0.1346
     29 H29         4.6297    0.4827    1.9195 H         1 <1>         0.3544
     30 H30         6.2098   -1.1861    0.0035 H         1 <1>         0.1367
@<TRIPOS>BOND
     1    1    2 1
     2    1   19 1
     3    2   18 ar
     4    2    3 ar
     5    3    4 ar
     6    3   20 1
     7    4    5 1
     8    4   15 ar
     9    5    6 2
    10    5   21 1
    11    6    7 1
    12    6   22 1
    13    7   14 ar
    14    7    8 ar
    15    8    9 ar
    16    8   23 1
    17    9   10 ar
    18    9   24 1
    19   10   11 1
    20   10   12 ar
    21   11   25 1
    22   12   13 1
    23   12   14 ar
    24   13   26 1
    25   14   27 1
    26   15   16 ar
    27   15   28 1
    28   16   17 1
    29   16   18 ar
    30   17   29 1
    31   18   30 1
@<TRIPOS>Similarity
1.0598
@<TRIPOS>ShapeSim
0.6620
@<TRIPOS>PharmSim
0.3978
# END
# Name:		C1=CC(=C(C=C1C=CC2=CC(=CC(=C2)O)O)O)O
# Created and modified by SHAFTS on Thu Mar 11 05:28:35 2021

# 

@<TRIPOS>MOLECULE
C1=CC(=C(C=C1C=CC2=CC(=CC(=C2)O)O)O)O
   30    31     0
SMALL
USER_CHARGE


@<TRIPOS>ATOM
      1 O1          5.6125   -3.0273   -1.7554 O.3       1 <1>        -0.4377
      2 C2          4.7639   -2.0637   -1.3099 C.ar      1 <1>        -0.0296
      3 C3          3.4668   -2.0088   -1.7910 C.ar      1 <1>        -0.0542
      4 C4          2.5955   -1.0180   -1.3324 C.ar      1 <1>        -0.0766
      5 C5          1.2136   -0.9553   -1.8410 C.2       1 <1>        -0.0860
      6 C6          0.3780   -0.0018   -1.3986 C.2       1 <1>        -0.0875
      7 C7         -1.0036    0.0609   -1.9071 C.ar      1 <1>        -0.0819
      8 C8         -1.4478   -0.8744   -2.8452 C.ar      1 <1>        -0.0855
      9 C9         -2.7414   -0.8138   -3.3198 C.ar      1 <1>        -0.0605
     10 C10        -3.6038    0.1740   -2.8680 C.ar      1 <1>        -0.0076
     11 O11        -4.8778    0.2290   -3.3391 O.3       1 <1>        -0.4324
     12 C12        -3.1680    1.1100   -1.9319 C.ar      1 <1>        -0.0049
     13 O13        -4.0171    2.0764   -1.4908 O.3       1 <1>        -0.4319
     14 C14        -1.8751    1.0528   -1.4477 C.ar      1 <1>        -0.0523
     15 C15         3.0382   -0.0869   -0.3898 C.ar      1 <1>        -0.0563
     16 C16         4.3373   -0.1502    0.0852 C.ar      1 <1>        -0.0312
     17 O17         4.7692    0.7550    1.0022 O.3       1 <1>        -0.4381
     18 C18         5.1973   -1.1400   -0.3694 C.ar      1 <1>        -0.0333
     19 H19         5.5905   -3.8420   -1.2348 H         1 <1>         0.3544
     20 H20         3.1292   -2.7306   -2.5201 H         1 <1>         0.1372
     21 H21         0.8730   -1.6762   -2.5694 H         1 <1>         0.1270
     22 H22         0.7185    0.7192   -0.6701 H         1 <1>         0.1281
     23 H23        -0.7782   -1.6445   -3.1990 H         1 <1>         0.1276
     24 H24        -3.0835   -1.5371   -4.0452 H         1 <1>         0.1351
     25 H25        -5.5114   -0.2859   -2.8208 H         1 <1>         0.3564
     26 H26        -4.5272    1.8247   -0.7088 H         1 <1>         0.3564
     27 H27        -1.5363    1.7773   -0.7220 H         1 <1>         0.1397
     28 H28         2.3685    0.6813   -0.0325 H         1 <1>         0.1346
     29 H29         4.6297    0.4827    1.9195 H         1 <1>         0.3544
     30 H30         6.2098   -1.1861    0.0035 H         1 <1>         0.1367
@<TRIPOS>BOND
     1    1    2 1
     2    1   19 1
     3    2   18 ar
     4    2    3 ar
     5    3    4 ar
     6    3   20 1
     7    4    5 1
     8    4   15 ar
     9    5    6 2
    10    5   21 1
    11    6    7 1
    12    6   22 1
    13    7   14 ar
    14    7    8 ar
    15    8    9 ar
    16    8   23 1
    17    9   10 ar
    18    9   24 1
    19   10   11 1
    20   10   12 ar
    21   11   25 1
    22   12   13 1
    23   12   14 ar
    24   13   26 1
    25   14   27 1
    26   15   16 ar
    27   15   28 1
    28   16   17 1
    29   16   18 ar
    30   17   29 1
    31   18   30 1
@<TRIPOS>Similarity
1.0598
@<TRIPOS>ShapeSim
0.6620
@<TRIPOS>PharmSim
0.3978
# END
# Name:		C1=CC(=CC=C1C=C2C(=O)NC(=O)N2)O
# Created and modified by SHAFTS on Thu Mar 11 05:28:35 2021

# 

@<TRIPOS>MOLECULE
C1=CC(=CC=C1C=C2C(=O)NC(=O)N2)O
   23    24     0
SMALL
USER_CHARGE


@<TRIPOS>ATOM
      1 O1          2.0939    3.3371    3.9438 O.2       1 <1>        -0.4435
      2 C2          2.4791    2.5054    3.1446 C.2       1 <1>         0.1666
      3 N3          3.7343    2.4253    2.6771 N.am      1 <1>        -0.2022
      4 C4          3.8350    1.3976    1.8099 C.2       1 <1>         0.1711
      5 O5          4.8312    1.0462    1.2054 O.2       1 <1>        -0.4236
      6 C6          2.4988    0.7864    1.7421 C.2       1 <1>         0.0698
      7 C7          2.1182   -0.2819    0.9973 C.2       1 <1>        -0.0283
      8 C8          3.1240   -1.0635    0.2664 C.ar      1 <1>        -0.0643
      9 C9          4.3658   -1.3349    0.8537 C.ar      1 <1>        -0.0753
     10 C10         5.3050   -2.0680    0.1641 C.ar      1 <1>        -0.0594
     11 C11         5.0225   -2.5385   -1.1131 C.ar      1 <1>        -0.0384
     12 O12         5.9522   -3.2612   -1.7886 O.3       1 <1>        -0.4385
     13 C13         3.7914   -2.2719   -1.7010 C.ar      1 <1>        -0.0662
     14 C14         2.8426   -1.5447   -1.0181 C.ar      1 <1>        -0.0830
     15 N15         1.7050    1.5407    2.6170 N.am      1 <1>        -0.2651
     16 H16         4.4606    3.0181    2.9257 H         1 <1>         0.3710
     17 H17         1.0754   -0.5575    0.9419 H         1 <1>         0.1694
     18 H18         4.5865   -0.9695    1.8459 H         1 <1>         0.1409
     19 H19         6.2633   -2.2776    0.6160 H         1 <1>         0.1264
     20 H20         5.8948   -4.2148   -1.6379 H         1 <1>         0.3544
     21 H21         3.5772   -2.6396   -2.6937 H         1 <1>         0.1225
     22 H22         1.8863   -1.3386   -1.4757 H         1 <1>         0.1329
     23 H23         0.7640    1.3965    2.8037 H         1 <1>         0.3530
@<TRIPOS>BOND
     1    1    2 2
     2    2   15 am
     3    2    3 am
     4    3    4 am
     5    3   16 1
     6    4    5 2
     7    4    6 1
     8    6    7 2
     9    6   15 1
    10    7    8 1
    11    7   17 1
    12    8   14 ar
    13    8    9 ar
    14    9   10 ar
    15    9   18 1
    16   10   11 ar
    17   10   19 1
    18   11   12 1
    19   11   13 ar
    20   12   20 1
    21   13   14 ar
    22   13   21 1
    23   14   22 1
    24   15   23 1
@<TRIPOS>Similarity
1.0586
@<TRIPOS>ShapeSim
0.6166
@<TRIPOS>PharmSim
0.4420
# END
# Name:		CN1C2=CC=CC=C2C(C3=NOC(C4=CN(C)C5=C4C=CC=C5)=C3)=C1
# Created and modified by SHAFTS on Thu Mar 11 05:28:35 2021

# 

@<TRIPOS>MOLECULE
CN1C2=CC=CC=C2C(C3=NOC(C4=CN(C)C5=C4C=CC=C5)=C3)=C1
   42    46     0
SMALL
USER_CHARGE


@<TRIPOS>ATOM
      1 C1         -6.0538    0.7695   -1.3016 C.3       1 <1>        -0.0092
      2 N2         -4.7200    0.6218   -1.8894 N.pl3     1 <1>        -0.3734
      3 C3         -3.6165    0.1901   -1.2178 C.2       1 <1>        -0.0333
      4 C4         -2.5470    0.1700   -2.0569 C.2       1 <1>        -0.0051
      5 C5         -1.1696   -0.2356   -1.7198 C.2       1 <1>         0.0937
      6 C6         -0.4253    0.1953   -0.6556 C.2       1 <1>        -0.0177
      7 C7          0.8053   -0.4959   -0.8006 C.2       1 <1>         0.0076
      8 C8          1.9870   -0.4020    0.0882 C.2       1 <1>        -0.0217
      9 C9          2.1020    0.3586    1.2049 C.2       1 <1>        -0.0345
     10 N10         3.3354    0.1825    1.7581 N.pl3     1 <1>        -0.3743
     11 C11         3.8109    0.8458    2.9747 C.3       1 <1>        -0.0095
     12 C12         4.0704   -0.7102    1.0078 C.ar      1 <1>        -0.0509
     13 C13         5.3568   -1.2252    1.1298 C.ar      1 <1>        -0.0752
     14 C14         5.8279   -2.1250    0.1990 C.ar      1 <1>        -0.0990
     15 C15         5.0311   -2.5255   -0.8642 C.ar      1 <1>        -0.0987
     16 C16         3.7548   -2.0271   -1.0034 C.ar      1 <1>        -0.0826
     17 C17         3.2621   -1.1209   -0.0659 C.ar      1 <1>        -0.0474
     18 N18         0.6882   -1.2353   -1.8793 N.2       1 <1>        -0.2350
     19 O19        -0.3978   -1.1072   -2.3945 O.3       1 <1>        -0.2502
     20 C20        -3.0329    0.6316   -3.3687 C.ar      1 <1>        -0.0501
     21 C21        -2.4300    0.8256   -4.6097 C.ar      1 <1>        -0.0871
     22 C22        -3.1826    1.2809   -5.6698 C.ar      1 <1>        -0.1006
     23 C23        -4.5346    1.5466   -5.5062 C.ar      1 <1>        -0.0994
     24 C24        -5.1442    1.3595   -4.2848 C.ar      1 <1>        -0.0753
     25 C25        -4.4032    0.8942   -3.2033 C.ar      1 <1>        -0.0514
     26 H26        -6.6042   -0.1650   -1.4100 H         1 <1>         0.0984
     27 H27        -5.9594    1.0149   -0.2437 H         1 <1>         0.1128
     28 H28        -6.5900    1.5686   -1.8135 H         1 <1>         0.1056
     29 H29        -3.5943   -0.0929   -0.1758 H         1 <1>         0.2152
     30 H30        -0.7082    0.8976    0.1145 H         1 <1>         0.1457
     31 H31         1.3322    1.0068    1.5970 H         1 <1>         0.2130
     32 H32         3.5638    0.2341    3.8424 H         1 <1>         0.0984
     33 H33         4.8915    0.9768    2.9184 H         1 <1>         0.1056
     34 H34         3.3312    1.8201    3.0685 H         1 <1>         0.1128
     35 H35         5.9855   -0.9198    1.9530 H         1 <1>         0.1192
     36 H36         6.8274   -2.5224    0.2976 H         1 <1>         0.1238
     37 H37         5.4140   -3.2314   -1.5865 H         1 <1>         0.1176
     38 H38         3.1373   -2.3404   -1.8321 H         1 <1>         0.1361
     39 H39        -1.3777    0.6203   -4.7398 H         1 <1>         0.1259
     40 H40        -2.7180    1.4322   -6.6330 H         1 <1>         0.1171
     41 H41        -5.1146    1.9039   -6.3442 H         1 <1>         0.1238
     42 H42        -6.1971    1.5696   -4.1683 H         1 <1>         0.1192
@<TRIPOS>BOND
     1    1    2 1
     2    1   26 1
     3    1   27 1
     4    1   28 1
     5    2   25 1
     6    2    3 1
     7    3    4 2
     8    3   29 1
     9    4    5 1
    10    4   20 1
    11    5   19 1
    12    5    6 2
    13    6    7 1
    14    6   30 1
    15    7    8 1
    16    7   18 2
    17    8   17 1
    18    8    9 2
    19    9   10 1
    20    9   31 1
    21   10   11 1
    22   10   12 1
    23   11   32 1
    24   11   33 1
    25   11   34 1
    26   12   17 ar
    27   12   13 ar
    28   13   14 ar
    29   13   35 1
    30   14   15 ar
    31   14   36 1
    32   15   16 ar
    33   15   37 1
    34   16   17 ar
    35   16   38 1
    36   18   19 1
    37   20   25 ar
    38   20   21 ar
    39   21   22 ar
    40   21   39 1
    41   22   23 ar
    42   22   40 1
    43   23   24 ar
    44   23   41 1
    45   24   25 ar
    46   24   42 1
@<TRIPOS>Similarity
1.0585
@<TRIPOS>ShapeSim
0.7085
@<TRIPOS>PharmSim
0.3501
# END
# Name:		C1=CC(=CC(=C1)Cl)NC2=NC3=C(C=CC(=C3)C(=O)O)C4=C2C=CN=C4
# Created and modified by SHAFTS on Thu Mar 11 05:28:35 2021

# 

@<TRIPOS>MOLECULE
C1=CC(=CC(=C1)Cl)NC2=NC3=C(C=CC(=C3)C(=O)O)C4=C2C=CN=C4
   36    39     0
SMALL
USER_CHARGE


@<TRIPOS>ATOM
      1 O1          3.9904   -2.7665   -2.8318 O.co2     1 <1>        -0.5000
      2 C2          4.5062   -2.4716   -1.7630 C.2       1 <1>         0.5200
      3 O3          5.6343   -2.8637   -1.4996 O.co2     1 <1>        -0.5000
      4 C4          3.7703   -1.6375   -0.7940 C.ar      1 <1>        -0.1100
      5 C5          4.3684   -1.2968    0.4286 C.ar      1 <1>        -0.0800
      6 C6          3.7000   -0.5271    1.3329 C.ar      1 <1>        -0.1100
      7 C7          2.4112   -0.0699    1.0500 C.ar      1 <1>        -0.1100
      8 C8          1.7907   -0.4019   -0.1770 C.ar      1 <1>         0.1400
      9 C9          2.4912   -1.1895   -1.0999 C.ar      1 <1>        -0.0600
     10 N10         0.5499    0.0288   -0.4670 N.ar      1 <1>        -0.5100
     11 C11        -0.1643    0.7715    0.3440 C.ar      1 <1>         0.4200
     12 N12        -1.4332    1.1719   -0.0319 N.pl3     1 <1>        -0.6500
     13 C13        -1.9957    0.6898   -1.2169 C.ar      1 <1>         0.1800
     14 C14        -1.7817   -0.6271   -1.6035 C.ar      1 <1>        -0.1000
     15 C15        -2.3391   -1.1013   -2.7750 C.ar      1 <1>        -0.0800
     16 C16        -3.1098   -0.2669   -3.5631 C.ar      1 <1>        -0.1300
     17 C17        -3.3251    1.0463   -3.1815 C.ar      1 <1>        -0.0200
     18 Cl18       -4.2934    2.0904   -4.1743 Cl        1 <1>        -0.0700
     19 C19        -2.7746    1.5249   -2.0077 C.ar      1 <1>        -0.1500
     20 C20         0.3697    1.1796    1.6431 C.ar      1 <1>        -0.0800
     21 C21        -0.3473    1.9684    2.5451 C.ar      1 <1>        -0.1400
     22 C22         0.2400    2.2970    3.7370 C.ar      1 <1>         0.0800
     23 N23         1.4580    1.8883    4.0494 N.ar      1 <1>        -0.4700
     24 C24         2.1852    1.1427    3.2424 C.ar      1 <1>         0.1300
     25 C25         1.6711    0.7584    2.0066 C.ar      1 <1>        -0.0400
     26 H26         5.3647   -1.6470    0.6544 H         1 <1>         0.1400
     27 H27         4.1684   -0.2702    2.2716 H         1 <1>         0.1200
     28 H28         2.0355   -1.4540   -2.0427 H         1 <1>         0.1400
     29 H29        -1.9330    1.7873    0.5270 H         1 <1>         0.4200
     30 H30        -1.1795   -1.2798   -0.9888 H         1 <1>         0.1400
     31 H31        -2.1726   -2.1250   -3.0758 H         1 <1>         0.1400
     32 H32        -3.5445   -0.6401   -4.4786 H         1 <1>         0.1300
     33 H33        -2.9426    2.5494   -1.7101 H         1 <1>         0.1300
     34 H34        -1.3433    2.3119    2.3074 H         1 <1>         0.1400
     35 H35        -0.3061    2.9069    4.4414 H         1 <1>         0.1600
     36 H36         3.1762    0.8314    3.5379 H         1 <1>         0.1700
@<TRIPOS>BOND
     1    1    2 ar
     2    2    3 ar
     3    2    4 1
     4    4    9 ar
     5    4    5 ar
     6    5    6 ar
     7    5   26 1
     8    6    7 ar
     9    6   27 1
    10    7   25 ar
    11    7    8 ar
    12    8    9 ar
    13    8   10 ar
    14    9   28 1
    15   10   11 ar
    16   11   12 1
    17   11   20 ar
    18   12   13 1
    19   12   29 1
    20   13   19 ar
    21   13   14 ar
    22   14   15 ar
    23   14   30 1
    24   15   16 ar
    25   15   31 1
    26   16   17 ar
    27   16   32 1
    28   17   18 1
    29   17   19 ar
    30   19   33 1
    31   20   25 ar
    32   20   21 ar
    33   21   22 ar
    34   21   34 1
    35   22   23 ar
    36   22   35 1
    37   23   24 ar
    38   24   25 ar
    39   24   36 1
@<TRIPOS>Similarity
1.0582
@<TRIPOS>ShapeSim
0.7522
@<TRIPOS>PharmSim
0.3060
# END
# Name:		O=C(C1=CC=C2C3=C(C(NC4=CC=CC(Cl)=C4)=NC2=C1)C=CN=C3)O
# Created and modified by SHAFTS on Thu Mar 11 05:28:35 2021

# 

@<TRIPOS>MOLECULE
O=C(C1=CC=C2C3=C(C(NC4=CC=CC(Cl)=C4)=NC2=C1)C=CN=C3)O
   36    39     0
SMALL
USER_CHARGE


@<TRIPOS>ATOM
      1 O1          3.9904   -2.7665   -2.8318 O.co2     1 <1>        -0.5000
      2 C2          4.5062   -2.4716   -1.7630 C.2       1 <1>         0.5200
      3 O3          5.6343   -2.8637   -1.4996 O.co2     1 <1>        -0.5000
      4 C4          3.7703   -1.6375   -0.7940 C.ar      1 <1>        -0.1100
      5 C5          4.3684   -1.2968    0.4286 C.ar      1 <1>        -0.0800
      6 C6          3.7000   -0.5271    1.3329 C.ar      1 <1>        -0.1100
      7 C7          2.4112   -0.0699    1.0500 C.ar      1 <1>        -0.1100
      8 C8          1.7907   -0.4019   -0.1770 C.ar      1 <1>         0.1400
      9 C9          2.4912   -1.1895   -1.0999 C.ar      1 <1>        -0.0600
     10 N10         0.5499    0.0288   -0.4670 N.ar      1 <1>        -0.5100
     11 C11        -0.1643    0.7715    0.3440 C.ar      1 <1>         0.4200
     12 N12        -1.4332    1.1719   -0.0319 N.pl3     1 <1>        -0.6500
     13 C13        -1.9957    0.6898   -1.2169 C.ar      1 <1>         0.1800
     14 C14        -1.7817   -0.6271   -1.6035 C.ar      1 <1>        -0.1000
     15 C15        -2.3391   -1.1013   -2.7750 C.ar      1 <1>        -0.0800
     16 C16        -3.1098   -0.2669   -3.5631 C.ar      1 <1>        -0.1300
     17 C17        -3.3251    1.0463   -3.1815 C.ar      1 <1>        -0.0200
     18 Cl18       -4.2934    2.0904   -4.1743 Cl        1 <1>        -0.0700
     19 C19        -2.7746    1.5249   -2.0077 C.ar      1 <1>        -0.1500
     20 C20         0.3697    1.1796    1.6431 C.ar      1 <1>        -0.0800
     21 C21        -0.3473    1.9684    2.5451 C.ar      1 <1>        -0.1400
     22 C22         0.2400    2.2970    3.7370 C.ar      1 <1>         0.0800
     23 N23         1.4580    1.8883    4.0494 N.ar      1 <1>        -0.4700
     24 C24         2.1852    1.1427    3.2424 C.ar      1 <1>         0.1300
     25 C25         1.6711    0.7584    2.0066 C.ar      1 <1>        -0.0400
     26 H26         5.3647   -1.6470    0.6544 H         1 <1>         0.1400
     27 H27         4.1684   -0.2702    2.2716 H         1 <1>         0.1200
     28 H28         2.0355   -1.4540   -2.0427 H         1 <1>         0.1400
     29 H29        -1.9330    1.7873    0.5270 H         1 <1>         0.4200
     30 H30        -1.1795   -1.2798   -0.9888 H         1 <1>         0.1400
     31 H31        -2.1726   -2.1250   -3.0758 H         1 <1>         0.1400
     32 H32        -3.5445   -0.6401   -4.4786 H         1 <1>         0.1300
     33 H33        -2.9426    2.5494   -1.7101 H         1 <1>         0.1300
     34 H34        -1.3433    2.3119    2.3074 H         1 <1>         0.1400
     35 H35        -0.3061    2.9069    4.4414 H         1 <1>         0.1600
     36 H36         3.1762    0.8314    3.5379 H         1 <1>         0.1700
@<TRIPOS>BOND
     1    1    2 ar
     2    2    3 ar
     3    2    4 1
     4    4    9 ar
     5    4    5 ar
     6    5    6 ar
     7    5   26 1
     8    6    7 ar
     9    6   27 1
    10    7   25 ar
    11    7    8 ar
    12    8    9 ar
    13    8   10 ar
    14    9   28 1
    15   10   11 ar
    16   11   12 1
    17   11   20 ar
    18   12   13 1
    19   12   29 1
    20   13   19 ar
    21   13   14 ar
    22   14   15 ar
    23   14   30 1
    24   15   16 ar
    25   15   31 1
    26   16   17 ar
    27   16   32 1
    28   17   18 1
    29   17   19 ar
    30   19   33 1
    31   20   25 ar
    32   20   21 ar
    33   21   22 ar
    34   21   34 1
    35   22   23 ar
    36   22   35 1
    37   23   24 ar
    38   24   25 ar
    39   24   36 1
@<TRIPOS>Similarity
1.0582
@<TRIPOS>ShapeSim
0.7522
@<TRIPOS>PharmSim
0.3060
# END
# Name:		C1=CC(=CC(=C1)Cl)NC2=NC3=C(C=CC(=C3)C(=O)O)C4=C2C=CN=C4
# Created and modified by SHAFTS on Thu Mar 11 05:28:35 2021

# 

@<TRIPOS>MOLECULE
C1=CC(=CC(=C1)Cl)NC2=NC3=C(C=CC(=C3)C(=O)O)C4=C2C=CN=C4
   36    39     0
SMALL
USER_CHARGE


@<TRIPOS>ATOM
      1 O1          3.9904   -2.7665   -2.8318 O.co2     1 <1>        -0.5000
      2 C2          4.5062   -2.4716   -1.7630 C.2       1 <1>         0.5200
      3 O3          5.6343   -2.8637   -1.4996 O.co2     1 <1>        -0.5000
      4 C4          3.7703   -1.6375   -0.7940 C.ar      1 <1>        -0.1100
      5 C5          4.3684   -1.2968    0.4286 C.ar      1 <1>        -0.0800
      6 C6          3.7000   -0.5271    1.3329 C.ar      1 <1>        -0.1100
      7 C7          2.4112   -0.0699    1.0500 C.ar      1 <1>        -0.1100
      8 C8          1.7907   -0.4019   -0.1770 C.ar      1 <1>         0.1400
      9 C9          2.4912   -1.1895   -1.0999 C.ar      1 <1>        -0.0600
     10 N10         0.5499    0.0288   -0.4670 N.ar      1 <1>        -0.5100
     11 C11        -0.1643    0.7715    0.3440 C.ar      1 <1>         0.4200
     12 N12        -1.4332    1.1719   -0.0319 N.pl3     1 <1>        -0.6500
     13 C13        -1.9957    0.6898   -1.2169 C.ar      1 <1>         0.1800
     14 C14        -1.7817   -0.6271   -1.6035 C.ar      1 <1>        -0.1000
     15 C15        -2.3391   -1.1013   -2.7750 C.ar      1 <1>        -0.0800
     16 C16        -3.1098   -0.2669   -3.5631 C.ar      1 <1>        -0.1300
     17 C17        -3.3251    1.0463   -3.1815 C.ar      1 <1>        -0.0200
     18 Cl18       -4.2934    2.0904   -4.1743 Cl        1 <1>        -0.0700
     19 C19        -2.7746    1.5249   -2.0077 C.ar      1 <1>        -0.1500
     20 C20         0.3697    1.1796    1.6431 C.ar      1 <1>        -0.0800
     21 C21        -0.3473    1.9684    2.5451 C.ar      1 <1>        -0.1400
     22 C22         0.2400    2.2970    3.7370 C.ar      1 <1>         0.0800
     23 N23         1.4580    1.8883    4.0494 N.ar      1 <1>        -0.4700
     24 C24         2.1852    1.1427    3.2424 C.ar      1 <1>         0.1300
     25 C25         1.6711    0.7584    2.0066 C.ar      1 <1>        -0.0400
     26 H26         5.3647   -1.6470    0.6544 H         1 <1>         0.1400
     27 H27         4.1684   -0.2702    2.2716 H         1 <1>         0.1200
     28 H28         2.0355   -1.4540   -2.0427 H         1 <1>         0.1400
     29 H29        -1.9330    1.7873    0.5270 H         1 <1>         0.4200
     30 H30        -1.1795   -1.2798   -0.9888 H         1 <1>         0.1400
     31 H31        -2.1726   -2.1250   -3.0758 H         1 <1>         0.1400
     32 H32        -3.5445   -0.6401   -4.4786 H         1 <1>         0.1300
     33 H33        -2.9426    2.5494   -1.7101 H         1 <1>         0.1300
     34 H34        -1.3433    2.3119    2.3074 H         1 <1>         0.1400
     35 H35        -0.3061    2.9069    4.4414 H         1 <1>         0.1600
     36 H36         3.1762    0.8314    3.5379 H         1 <1>         0.1700
@<TRIPOS>BOND
     1    1    2 ar
     2    2    3 ar
     3    2    4 1
     4    4    9 ar
     5    4    5 ar
     6    5    6 ar
     7    5   26 1
     8    6    7 ar
     9    6   27 1
    10    7   25 ar
    11    7    8 ar
    12    8    9 ar
    13    8   10 ar
    14    9   28 1
    15   10   11 ar
    16   11   12 1
    17   11   20 ar
    18   12   13 1
    19   12   29 1
    20   13   19 ar
    21   13   14 ar
    22   14   15 ar
    23   14   30 1
    24   15   16 ar
    25   15   31 1
    26   16   17 ar
    27   16   32 1
    28   17   18 1
    29   17   19 ar
    30   19   33 1
    31   20   25 ar
    32   20   21 ar
    33   21   22 ar
    34   21   34 1
    35   22   23 ar
    36   22   35 1
    37   23   24 ar
    38   24   25 ar
    39   24   36 1
@<TRIPOS>Similarity
1.0582
@<TRIPOS>ShapeSim
0.7522
@<TRIPOS>PharmSim
0.3060
# END
# Name:		O=C(C1=CC=C2C3=C(C(NC4=CC=CC(Cl)=C4)=NC2=C1)C=CN=C3)O
# Created and modified by SHAFTS on Thu Mar 11 05:28:35 2021

# 

@<TRIPOS>MOLECULE
O=C(C1=CC=C2C3=C(C(NC4=CC=CC(Cl)=C4)=NC2=C1)C=CN=C3)O
   36    39     0
SMALL
USER_CHARGE


@<TRIPOS>ATOM
      1 O1          3.9904   -2.7665   -2.8318 O.co2     1 <1>        -0.5000
      2 C2          4.5062   -2.4716   -1.7630 C.2       1 <1>         0.5200
      3 O3          5.6343   -2.8637   -1.4996 O.co2     1 <1>        -0.5000
      4 C4          3.7703   -1.6375   -0.7940 C.ar      1 <1>        -0.1100
      5 C5          4.3684   -1.2968    0.4286 C.ar      1 <1>        -0.0800
      6 C6          3.7000   -0.5271    1.3329 C.ar      1 <1>        -0.1100
      7 C7          2.4112   -0.0699    1.0500 C.ar      1 <1>        -0.1100
      8 C8          1.7907   -0.4019   -0.1770 C.ar      1 <1>         0.1400
      9 C9          2.4912   -1.1895   -1.0999 C.ar      1 <1>        -0.0600
     10 N10         0.5499    0.0288   -0.4670 N.ar      1 <1>        -0.5100
     11 C11        -0.1643    0.7715    0.3440 C.ar      1 <1>         0.4200
     12 N12        -1.4332    1.1719   -0.0319 N.pl3     1 <1>        -0.6500
     13 C13        -1.9957    0.6898   -1.2169 C.ar      1 <1>         0.1800
     14 C14        -1.7817   -0.6271   -1.6035 C.ar      1 <1>        -0.1000
     15 C15        -2.3391   -1.1013   -2.7750 C.ar      1 <1>        -0.0800
     16 C16        -3.1098   -0.2669   -3.5631 C.ar      1 <1>        -0.1300
     17 C17        -3.3251    1.0463   -3.1815 C.ar      1 <1>        -0.0200
     18 Cl18       -4.2934    2.0904   -4.1743 Cl        1 <1>        -0.0700
     19 C19        -2.7746    1.5249   -2.0077 C.ar      1 <1>        -0.1500
     20 C20         0.3697    1.1796    1.6431 C.ar      1 <1>        -0.0800
     21 C21        -0.3473    1.9684    2.5451 C.ar      1 <1>        -0.1400
     22 C22         0.2400    2.2970    3.7370 C.ar      1 <1>         0.0800
     23 N23         1.4580    1.8883    4.0494 N.ar      1 <1>        -0.4700
     24 C24         2.1852    1.1427    3.2424 C.ar      1 <1>         0.1300
     25 C25         1.6711    0.7584    2.0066 C.ar      1 <1>        -0.0400
     26 H26         5.3647   -1.6470    0.6544 H         1 <1>         0.1400
     27 H27         4.1684   -0.2702    2.2716 H         1 <1>         0.1200
     28 H28         2.0355   -1.4540   -2.0427 H         1 <1>         0.1400
     29 H29        -1.9330    1.7873    0.5270 H         1 <1>         0.4200
     30 H30        -1.1795   -1.2798   -0.9888 H         1 <1>         0.1400
     31 H31        -2.1726   -2.1250   -3.0758 H         1 <1>         0.1400
     32 H32        -3.5445   -0.6401   -4.4786 H         1 <1>         0.1300
     33 H33        -2.9426    2.5494   -1.7101 H         1 <1>         0.1300
     34 H34        -1.3433    2.3119    2.3074 H         1 <1>         0.1400
     35 H35        -0.3061    2.9069    4.4414 H         1 <1>         0.1600
     36 H36         3.1762    0.8314    3.5379 H         1 <1>         0.1700
@<TRIPOS>BOND
     1    1    2 ar
     2    2    3 ar
     3    2    4 1
     4    4    9 ar
     5    4    5 ar
     6    5    6 ar
     7    5   26 1
     8    6    7 ar
     9    6   27 1
    10    7   25 ar
    11    7    8 ar
    12    8    9 ar
    13    8   10 ar
    14    9   28 1
    15   10   11 ar
    16   11   12 1
    17   11   20 ar
    18   12   13 1
    19   12   29 1
    20   13   19 ar
    21   13   14 ar
    22   14   15 ar
    23   14   30 1
    24   15   16 ar
    25   15   31 1
    26   16   17 ar
    27   16   32 1
    28   17   18 1
    29   17   19 ar
    30   19   33 1
    31   20   25 ar
    32   20   21 ar
    33   21   22 ar
    34   21   34 1
    35   22   23 ar
    36   22   35 1
    37   23   24 ar
    38   24   25 ar
    39   24   36 1
@<TRIPOS>Similarity
1.0582
@<TRIPOS>ShapeSim
0.7522
@<TRIPOS>PharmSim
0.3060
# END
# Name:		C1=CC(=CC(=C1)Cl)NC2=NC3=C(C=CC(=C3)C(=O)O)C4=C2C=CN=C4
# Created and modified by SHAFTS on Thu Mar 11 05:28:35 2021

# 

@<TRIPOS>MOLECULE
C1=CC(=CC(=C1)Cl)NC2=NC3=C(C=CC(=C3)C(=O)O)C4=C2C=CN=C4
   36    39     0
SMALL
USER_CHARGE


@<TRIPOS>ATOM
      1 O1          3.9904   -2.7665   -2.8318 O.co2     1 <1>        -0.5000
      2 C2          4.5062   -2.4716   -1.7630 C.2       1 <1>         0.5200
      3 O3          5.6343   -2.8637   -1.4996 O.co2     1 <1>        -0.5000
      4 C4          3.7703   -1.6375   -0.7940 C.ar      1 <1>        -0.1100
      5 C5          4.3684   -1.2968    0.4286 C.ar      1 <1>        -0.0800
      6 C6          3.7000   -0.5271    1.3329 C.ar      1 <1>        -0.1100
      7 C7          2.4112   -0.0699    1.0500 C.ar      1 <1>        -0.1100
      8 C8          1.7907   -0.4019   -0.1770 C.ar      1 <1>         0.1400
      9 C9          2.4912   -1.1895   -1.0999 C.ar      1 <1>        -0.0600
     10 N10         0.5499    0.0288   -0.4670 N.ar      1 <1>        -0.5100
     11 C11        -0.1643    0.7715    0.3440 C.ar      1 <1>         0.4200
     12 N12        -1.4332    1.1719   -0.0319 N.pl3     1 <1>        -0.6500
     13 C13        -1.9957    0.6898   -1.2169 C.ar      1 <1>         0.1800
     14 C14        -1.7817   -0.6271   -1.6035 C.ar      1 <1>        -0.1000
     15 C15        -2.3391   -1.1013   -2.7750 C.ar      1 <1>        -0.0800
     16 C16        -3.1098   -0.2669   -3.5631 C.ar      1 <1>        -0.1300
     17 C17        -3.3251    1.0463   -3.1815 C.ar      1 <1>        -0.0200
     18 Cl18       -4.2934    2.0904   -4.1743 Cl        1 <1>        -0.0700
     19 C19        -2.7746    1.5249   -2.0077 C.ar      1 <1>        -0.1500
     20 C20         0.3697    1.1796    1.6431 C.ar      1 <1>        -0.0800
     21 C21        -0.3473    1.9684    2.5451 C.ar      1 <1>        -0.1400
     22 C22         0.2400    2.2970    3.7370 C.ar      1 <1>         0.0800
     23 N23         1.4580    1.8883    4.0494 N.ar      1 <1>        -0.4700
     24 C24         2.1852    1.1427    3.2424 C.ar      1 <1>         0.1300
     25 C25         1.6711    0.7584    2.0066 C.ar      1 <1>        -0.0400
     26 H26         5.3647   -1.6470    0.6544 H         1 <1>         0.1400
     27 H27         4.1684   -0.2702    2.2716 H         1 <1>         0.1200
     28 H28         2.0355   -1.4540   -2.0427 H         1 <1>         0.1400
     29 H29        -1.9330    1.7873    0.5270 H         1 <1>         0.4200
     30 H30        -1.1795   -1.2798   -0.9888 H         1 <1>         0.1400
     31 H31        -2.1726   -2.1250   -3.0758 H         1 <1>         0.1400
     32 H32        -3.5445   -0.6401   -4.4786 H         1 <1>         0.1300
     33 H33        -2.9426    2.5494   -1.7101 H         1 <1>         0.1300
     34 H34        -1.3433    2.3119    2.3074 H         1 <1>         0.1400
     35 H35        -0.3061    2.9069    4.4414 H         1 <1>         0.1600
     36 H36         3.1762    0.8314    3.5379 H         1 <1>         0.1700
@<TRIPOS>BOND
     1    1    2 ar
     2    2    3 ar
     3    2    4 1
     4    4    9 ar
     5    4    5 ar
     6    5    6 ar
     7    5   26 1
     8    6    7 ar
     9    6   27 1
    10    7   25 ar
    11    7    8 ar
    12    8    9 ar
    13    8   10 ar
    14    9   28 1
    15   10   11 ar
    16   11   12 1
    17   11   20 ar
    18   12   13 1
    19   12   29 1
    20   13   19 ar
    21   13   14 ar
    22   14   15 ar
    23   14   30 1
    24   15   16 ar
    25   15   31 1
    26   16   17 ar
    27   16   32 1
    28   17   18 1
    29   17   19 ar
    30   19   33 1
    31   20   25 ar
    32   20   21 ar
    33   21   22 ar
    34   21   34 1
    35   22   23 ar
    36   22   35 1
    37   23   24 ar
    38   24   25 ar
    39   24   36 1
@<TRIPOS>Similarity
1.0582
@<TRIPOS>ShapeSim
0.7522
@<TRIPOS>PharmSim
0.3060
# END
# Name:		O=C(C1=CC=C2C3=C(C(NC4=CC=CC(Cl)=C4)=NC2=C1)C=CN=C3)O
# Created and modified by SHAFTS on Thu Mar 11 05:28:35 2021

# 

@<TRIPOS>MOLECULE
O=C(C1=CC=C2C3=C(C(NC4=CC=CC(Cl)=C4)=NC2=C1)C=CN=C3)O
   36    39     0
SMALL
USER_CHARGE


@<TRIPOS>ATOM
      1 O1          3.9904   -2.7665   -2.8318 O.co2     1 <1>        -0.5000
      2 C2          4.5062   -2.4716   -1.7630 C.2       1 <1>         0.5200
      3 O3          5.6343   -2.8637   -1.4996 O.co2     1 <1>        -0.5000
      4 C4          3.7703   -1.6375   -0.7940 C.ar      1 <1>        -0.1100
      5 C5          4.3684   -1.2968    0.4286 C.ar      1 <1>        -0.0800
      6 C6          3.7000   -0.5271    1.3329 C.ar      1 <1>        -0.1100
      7 C7          2.4112   -0.0699    1.0500 C.ar      1 <1>        -0.1100
      8 C8          1.7907   -0.4019   -0.1770 C.ar      1 <1>         0.1400
      9 C9          2.4912   -1.1895   -1.0999 C.ar      1 <1>        -0.0600
     10 N10         0.5499    0.0288   -0.4670 N.ar      1 <1>        -0.5100
     11 C11        -0.1643    0.7715    0.3440 C.ar      1 <1>         0.4200
     12 N12        -1.4332    1.1719   -0.0319 N.pl3     1 <1>        -0.6500
     13 C13        -1.9957    0.6898   -1.2169 C.ar      1 <1>         0.1800
     14 C14        -1.7817   -0.6271   -1.6035 C.ar      1 <1>        -0.1000
     15 C15        -2.3391   -1.1013   -2.7750 C.ar      1 <1>        -0.0800
     16 C16        -3.1098   -0.2669   -3.5631 C.ar      1 <1>        -0.1300
     17 C17        -3.3251    1.0463   -3.1815 C.ar      1 <1>        -0.0200
     18 Cl18       -4.2934    2.0904   -4.1743 Cl        1 <1>        -0.0700
     19 C19        -2.7746    1.5249   -2.0077 C.ar      1 <1>        -0.1500
     20 C20         0.3697    1.1796    1.6431 C.ar      1 <1>        -0.0800
     21 C21        -0.3473    1.9684    2.5451 C.ar      1 <1>        -0.1400
     22 C22         0.2400    2.2970    3.7370 C.ar      1 <1>         0.0800
     23 N23         1.4580    1.8883    4.0494 N.ar      1 <1>        -0.4700
     24 C24         2.1852    1.1427    3.2424 C.ar      1 <1>         0.1300
     25 C25         1.6711    0.7584    2.0066 C.ar      1 <1>        -0.0400
     26 H26         5.3647   -1.6470    0.6544 H         1 <1>         0.1400
     27 H27         4.1684   -0.2702    2.2716 H         1 <1>         0.1200
     28 H28         2.0355   -1.4540   -2.0427 H         1 <1>         0.1400
     29 H29        -1.9330    1.7873    0.5270 H         1 <1>         0.4200
     30 H30        -1.1795   -1.2798   -0.9888 H         1 <1>         0.1400
     31 H31        -2.1726   -2.1250   -3.0758 H         1 <1>         0.1400
     32 H32        -3.5445   -0.6401   -4.4786 H         1 <1>         0.1300
     33 H33        -2.9426    2.5494   -1.7101 H         1 <1>         0.1300
     34 H34        -1.3433    2.3119    2.3074 H         1 <1>         0.1400
     35 H35        -0.3061    2.9069    4.4414 H         1 <1>         0.1600
     36 H36         3.1762    0.8314    3.5379 H         1 <1>         0.1700
@<TRIPOS>BOND
     1    1    2 ar
     2    2    3 ar
     3    2    4 1
     4    4    9 ar
     5    4    5 ar
     6    5    6 ar
     7    5   26 1
     8    6    7 ar
     9    6   27 1
    10    7   25 ar
    11    7    8 ar
    12    8    9 ar
    13    8   10 ar
    14    9   28 1
    15   10   11 ar
    16   11   12 1
    17   11   20 ar
    18   12   13 1
    19   12   29 1
    20   13   19 ar
    21   13   14 ar
    22   14   15 ar
    23   14   30 1
    24   15   16 ar
    25   15   31 1
    26   16   17 ar
    27   16   32 1
    28   17   18 1
    29   17   19 ar
    30   19   33 1
    31   20   25 ar
    32   20   21 ar
    33   21   22 ar
    34   21   34 1
    35   22   23 ar
    36   22   35 1
    37   23   24 ar
    38   24   25 ar
    39   24   36 1
@<TRIPOS>Similarity
1.0582
@<TRIPOS>ShapeSim
0.7522
@<TRIPOS>PharmSim
0.3060
# END
# Name:		C1=CC(=CC(=C1)Cl)NC2=NC3=C(C=CC(=C3)C(=O)O)C4=C2C=CN=C4
# Created and modified by SHAFTS on Thu Mar 11 05:28:35 2021

# 

@<TRIPOS>MOLECULE
C1=CC(=CC(=C1)Cl)NC2=NC3=C(C=CC(=C3)C(=O)O)C4=C2C=CN=C4
   36    39     0
SMALL
USER_CHARGE


@<TRIPOS>ATOM
      1 O1          3.9904   -2.7665   -2.8318 O.co2     1 <1>        -0.5000
      2 C2          4.5062   -2.4716   -1.7630 C.2       1 <1>         0.5200
      3 O3          5.6343   -2.8637   -1.4996 O.co2     1 <1>        -0.5000
      4 C4          3.7703   -1.6375   -0.7940 C.ar      1 <1>        -0.1100
      5 C5          4.3684   -1.2968    0.4286 C.ar      1 <1>        -0.0800
      6 C6          3.7000   -0.5271    1.3329 C.ar      1 <1>        -0.1100
      7 C7          2.4112   -0.0699    1.0500 C.ar      1 <1>        -0.1100
      8 C8          1.7907   -0.4019   -0.1770 C.ar      1 <1>         0.1400
      9 C9          2.4912   -1.1895   -1.0999 C.ar      1 <1>        -0.0600
     10 N10         0.5499    0.0288   -0.4670 N.ar      1 <1>        -0.5100
     11 C11        -0.1643    0.7715    0.3440 C.ar      1 <1>         0.4200
     12 N12        -1.4332    1.1719   -0.0319 N.pl3     1 <1>        -0.6500
     13 C13        -1.9957    0.6898   -1.2169 C.ar      1 <1>         0.1800
     14 C14        -1.7817   -0.6271   -1.6035 C.ar      1 <1>        -0.1000
     15 C15        -2.3391   -1.1013   -2.7750 C.ar      1 <1>        -0.0800
     16 C16        -3.1098   -0.2669   -3.5631 C.ar      1 <1>        -0.1300
     17 C17        -3.3251    1.0463   -3.1815 C.ar      1 <1>        -0.0200
     18 Cl18       -4.2934    2.0904   -4.1743 Cl        1 <1>        -0.0700
     19 C19        -2.7746    1.5249   -2.0077 C.ar      1 <1>        -0.1500
     20 C20         0.3697    1.1796    1.6431 C.ar      1 <1>        -0.0800
     21 C21        -0.3473    1.9684    2.5451 C.ar      1 <1>        -0.1400
     22 C22         0.2400    2.2970    3.7370 C.ar      1 <1>         0.0800
     23 N23         1.4580    1.8883    4.0494 N.ar      1 <1>        -0.4700
     24 C24         2.1852    1.1427    3.2424 C.ar      1 <1>         0.1300
     25 C25         1.6711    0.7584    2.0066 C.ar      1 <1>        -0.0400
     26 H26         5.3647   -1.6470    0.6544 H         1 <1>         0.1400
     27 H27         4.1684   -0.2702    2.2716 H         1 <1>         0.1200
     28 H28         2.0355   -1.4540   -2.0427 H         1 <1>         0.1400
     29 H29        -1.9330    1.7873    0.5270 H         1 <1>         0.4200
     30 H30        -1.1795   -1.2798   -0.9888 H         1 <1>         0.1400
     31 H31        -2.1726   -2.1250   -3.0758 H         1 <1>         0.1400
     32 H32        -3.5445   -0.6401   -4.4786 H         1 <1>         0.1300
     33 H33        -2.9426    2.5494   -1.7101 H         1 <1>         0.1300
     34 H34        -1.3433    2.3119    2.3074 H         1 <1>         0.1400
     35 H35        -0.3061    2.9069    4.4414 H         1 <1>         0.1600
     36 H36         3.1762    0.8314    3.5379 H         1 <1>         0.1700
@<TRIPOS>BOND
     1    1    2 ar
     2    2    3 ar
     3    2    4 1
     4    4    9 ar
     5    4    5 ar
     6    5    6 ar
     7    5   26 1
     8    6    7 ar
     9    6   27 1
    10    7   25 ar
    11    7    8 ar
    12    8    9 ar
    13    8   10 ar
    14    9   28 1
    15   10   11 ar
    16   11   12 1
    17   11   20 ar
    18   12   13 1
    19   12   29 1
    20   13   19 ar
    21   13   14 ar
    22   14   15 ar
    23   14   30 1
    24   15   16 ar
    25   15   31 1
    26   16   17 ar
    27   16   32 1
    28   17   18 1
    29   17   19 ar
    30   19   33 1
    31   20   25 ar
    32   20   21 ar
    33   21   22 ar
    34   21   34 1
    35   22   23 ar
    36   22   35 1
    37   23   24 ar
    38   24   25 ar
    39   24   36 1
@<TRIPOS>Similarity
1.0582
@<TRIPOS>ShapeSim
0.7522
@<TRIPOS>PharmSim
0.3060
# END
# Name:		CN1C=C(C=N1)C2=NC(=C(C3=C2C(=O)NC3)F)N[C@@H]4CCCC[C@@H]4N
# Created and modified by SHAFTS on Thu Mar 11 05:28:35 2021

# 

@<TRIPOS>MOLECULE
CN1C=C(C=N1)C2=NC(=C(C3=C2C(=O)NC3)F)N[C@@H]4CCCC[C@@H]4N
   47    50     0
SMALL
USER_CHARGE


@<TRIPOS>ATOM
      1 C1          4.1210   -4.4494   -0.7733 C.3       1 <1>         0.0131
      2 N2          3.9469   -3.0022   -0.6274 N.pl3     1 <1>        -0.3291
      3 C3          2.8203   -2.3794   -0.2339 C.2       1 <1>        -0.0112
      4 C4          3.0714   -1.0357   -0.2281 C.2       1 <1>         0.0241
      5 C5          2.1146    0.0325    0.1400 C.ar      1 <1>         0.0284
      6 N6          0.8287   -0.1006   -0.1572 N.ar      1 <1>        -0.3331
      7 C7         -0.0625    0.8283    0.1524 C.ar      1 <1>         0.0512
      8 N8         -1.3935    0.6367   -0.1824 N.pl3     1 <1>        -0.3731
      9 C9         -1.8061   -0.5871   -0.8741 C.3       1 <1>        -0.0518
     10 H10        -1.2046   -1.4245   -0.5207 H         1 <1>         0.1356
     11 C11        -1.6041   -0.4141   -2.3808 C.3       1 <1>        -0.0456
     12 C12        -2.4484    0.7614   -2.8770 C.3       1 <1>        -0.0640
     13 C13        -3.9255    0.4860   -2.5887 C.3       1 <1>        -0.0663
     14 C14        -4.1275    0.3130   -1.0820 C.3       1 <1>        -0.0715
     15 C15        -3.2832   -0.8626   -0.5858 C.3       1 <1>        -0.1096
     16 H16        -3.5901   -1.7730   -1.1004 H         1 <1>         0.1172
     17 N17        -3.4771   -1.0286    0.8608 N.4       1 <1>         0.4467
     18 H18        -3.1930   -0.1856    1.3371 H         1 <1>         0.1414
     19 H19        -4.4512   -1.2103    1.0509 H         1 <1>         0.1492
     20 H20        -2.9203   -1.8038    1.1880 H         1 <1>         0.1492
     21 C21         0.3209    2.0009    0.8124 C.ar      1 <1>         0.1409
     22 F22        -0.5960    2.9430    1.1240 F         1 <1>        -0.2610
     23 C23         1.6426    2.1803    1.1394 C.ar      1 <1>         0.0137
     24 C24         2.5721    1.1848    0.8032 C.ar      1 <1>         0.0831
     25 C25         3.8960    1.6181    1.2647 C.2       1 <1>         0.1137
     26 O26         4.9212    0.9771    1.1320 O.2       1 <1>        -0.4680
     27 N27         3.8165    2.8248    1.8528 N.am      1 <1>        -0.3316
     28 C28         2.4180    3.2715    1.8284 C.3       1 <1>         0.0154
     29 C29         4.4069   -0.8529   -0.6429 C.2       1 <1>         0.0113
     30 N30         4.9237   -2.0299   -0.8731 N.2       1 <1>        -0.3375
     31 H31         3.8565   -4.7467   -1.7881 H         1 <1>         0.1132
     32 H32         5.1606   -4.7120   -0.5771 H         1 <1>         0.1277
     33 H33         3.4755   -4.9665   -0.0633 H         1 <1>         0.1205
     34 H34         1.8872   -2.8551    0.0295 H         1 <1>         0.2199
     35 H35        -2.0520    1.3129    0.0412 H         1 <1>         0.2982
     36 H36        -0.5518   -0.2178   -2.5862 H         1 <1>         0.0690
     37 H37        -1.9110   -1.3247   -2.8954 H         1 <1>         0.0618
     38 H38        -2.3045    0.8846   -3.9503 H         1 <1>         0.0519
     39 H39        -2.1415    1.6719   -2.3624 H         1 <1>         0.0448
     40 H40        -4.2325   -0.4246   -3.1033 H         1 <1>         0.0536
     41 H41        -4.5270    1.3234   -2.9422 H         1 <1>         0.0607
     42 H42        -5.1798    0.1168   -0.8766 H         1 <1>         0.0681
     43 H43        -3.8206    1.2236   -0.5674 H         1 <1>         0.0538
     44 H44         4.5601    3.3173    2.2342 H         1 <1>         0.3236
     45 H45         2.3316    4.2032    1.2694 H         1 <1>         0.1398
     46 H46         2.0495    3.4089    2.8450 H         1 <1>         0.1398
     47 H47         4.9141    0.0946   -0.7490 H         1 <1>         0.2329
@<TRIPOS>BOND
     1    1    2 1
     2    1   31 1
     3    1   32 1
     4    1   33 1
     5    2   30 1
     6    2    3 1
     7    3    4 2
     8    3   34 1
     9    4    5 1
    10    4   29 1
    11    5   24 ar
    12    5    6 ar
    13    6    7 ar
    14    7    8 1
    15    7   21 ar
    16    8    9 1
    17    8   35 1
    18    9   10 1
    19    9   15 1
    20    9   11 1
    21   11   12 1
    22   11   36 1
    23   11   37 1
    24   12   13 1
    25   12   38 1
    26   12   39 1
    27   13   14 1
    28   13   40 1
    29   13   41 1
    30   14   15 1
    31   14   42 1
    32   14   43 1
    33   15   16 1
    34   15   17 1
    35   17   18 1
    36   17   19 1
    37   17   20 1
    38   21   22 1
    39   21   23 ar
    40   23   28 1
    41   23   24 ar
    42   24   25 1
    43   25   26 2
    44   25   27 am
    45   27   28 1
    46   27   44 1
    47   28   45 1
    48   28   46 1
    49   29   30 2
    50   29   47 1
@<TRIPOS>Similarity
1.0575
@<TRIPOS>ShapeSim
0.7539
@<TRIPOS>PharmSim
0.3036
# END
# Name:		COC1=CC2=C(C=C1)N=C3C=CC(=CC3=C2SCCCN)OC
# Created and modified by SHAFTS on Thu Mar 11 05:28:35 2021

# 

@<TRIPOS>MOLECULE
COC1=CC2=C(C=C1)N=C3C=CC(=CC3=C2SCCCN)OC
   44    46     0
SMALL
USER_CHARGE


@<TRIPOS>ATOM
      1 C1          5.1516   -4.6619   -2.4826 C.3       1 <1>         0.0269
      2 O2          3.9917   -4.1033   -1.8623 O.3       1 <1>        -0.4125
      3 C3          4.1597   -2.9463   -1.1682 C.ar      1 <1>        -0.0034
      4 C4          5.4282   -2.3609   -1.0961 C.ar      1 <1>        -0.0451
      5 C5          5.6293   -1.2054   -0.4102 C.ar      1 <1>        -0.0387
      6 C6          4.5485   -0.5777    0.2424 C.ar      1 <1>        -0.0010
      7 N7          4.7356    0.5560    0.9171 N.ar      1 <1>        -0.3600
      8 C8          3.7368    1.1755    1.5450 C.ar      1 <1>        -0.0010
      9 C9          3.9721    2.3741    2.2492 C.ar      1 <1>        -0.0387
     10 C10         2.9471    2.9984    2.8860 C.ar      1 <1>        -0.0451
     11 C11         1.6514    2.4717    2.8572 C.ar      1 <1>        -0.0034
     12 O12         0.6473    3.1209    3.5044 O.3       1 <1>        -0.4125
     13 C13         0.9900    4.3281    4.1881 C.3       1 <1>         0.0269
     14 C14         1.3840    1.3134    2.1862 C.ar      1 <1>        -0.0377
     15 C15         2.4211    0.6426    1.5170 C.ar      1 <1>        -0.0268
     16 C16         2.1737   -0.5548    0.8157 C.ar      1 <1>        -0.0270
     17 S17         0.5581   -1.2550    0.7516 S.3       1 <1>        -0.1993
     18 C18        -0.0773   -0.4436   -0.7364 C.3       1 <1>        -0.0168
     19 C19        -1.5100   -0.9111   -0.9999 C.3       1 <1>        -0.0631
     20 C20        -2.0472   -0.2251   -2.2576 C.3       1 <1>        -0.1159
     21 N21        -3.4228   -0.6740   -2.5107 N.4       1 <1>         0.4450
     22 H22        -3.4312   -1.6741   -2.6434 H         1 <1>         0.1479
     23 H23        -4.0052   -0.4344   -1.7222 H         1 <1>         0.1479
     24 H24        -3.7770   -0.2215   -3.3401 H         1 <1>         0.1479
     25 C25         3.2617   -1.1732    0.1677 C.ar      1 <1>        -0.0268
     26 C26         3.0876   -2.3658   -0.5542 C.ar      1 <1>        -0.0377
     27 H27         5.5606   -3.9481   -3.1977 H         1 <1>         0.0910
     28 H28         5.8999   -4.8830   -1.7215 H         1 <1>         0.0910
     29 H29         4.8790   -5.5808   -3.0018 H         1 <1>         0.1272
     30 H30         6.2613   -2.8354   -1.5932 H         1 <1>         0.1290
     31 H31         6.6159   -0.7683   -0.3648 H         1 <1>         0.1643
     32 H32         4.9661    2.7953    2.2827 H         1 <1>         0.1643
     33 H33         3.1357    3.9160    3.4235 H         1 <1>         0.1290
     34 H34         1.7393    4.1138    4.9503 H         1 <1>         0.0910
     35 H35         1.3925    5.0478    3.4752 H         1 <1>         0.0910
     36 H36         0.0998    4.7434    4.6604 H         1 <1>         0.1272
     37 H37         0.3804    0.9148    2.1703 H         1 <1>         0.1383
     38 H38        -0.0682    0.6369   -0.5929 H         1 <1>         0.0818
     39 H39         0.5518   -0.7023   -1.5881 H         1 <1>         0.0818
     40 H40        -1.5192   -1.9915   -1.1433 H         1 <1>         0.0686
     41 H41        -2.1392   -0.6523   -0.1482 H         1 <1>         0.0686
     42 H42        -2.0382    0.8554   -2.1142 H         1 <1>         0.0938
     43 H43        -1.4182   -0.4838   -3.1094 H         1 <1>         0.0938
     44 H44         2.1114   -2.8231   -0.6198 H         1 <1>         0.1383
@<TRIPOS>BOND
     1    1    2 1
     2    1   27 1
     3    1   28 1
     4    1   29 1
     5    2    3 1
     6    3   26 ar
     7    3    4 ar
     8    4    5 ar
     9    4   30 1
    10    5    6 ar
    11    5   31 1
    12    6   25 ar
    13    6    7 ar
    14    7    8 ar
    15    8   15 ar
    16    8    9 ar
    17    9   10 ar
    18    9   32 1
    19   10   11 ar
    20   10   33 1
    21   11   12 1
    22   11   14 ar
    23   12   13 1
    24   13   34 1
    25   13   35 1
    26   13   36 1
    27   14   15 ar
    28   14   37 1
    29   15   16 ar
    30   16   17 1
    31   16   25 ar
    32   17   18 1
    33   18   19 1
    34   18   38 1
    35   18   39 1
    36   19   20 1
    37   19   40 1
    38   19   41 1
    39   20   21 1
    40   20   42 1
    41   20   43 1
    42   21   22 1
    43   21   23 1
    44   21   24 1
    45   25   26 ar
    46   26   44 1
@<TRIPOS>Similarity
1.0533
@<TRIPOS>ShapeSim
0.7590
@<TRIPOS>PharmSim
0.2943
# END
# Name:		CCN1C2=NC(=NC(=C2C=C(C1=O)C3=CC=NN3)C)N
# Created and modified by SHAFTS on Thu Mar 11 05:28:35 2021

# 

@<TRIPOS>MOLECULE
CCN1C2=NC(=NC(=C2C=C(C1=O)C3=CC=NN3)C)N
   34    36     0
SMALL
USER_CHARGE


@<TRIPOS>ATOM
      1 C1          6.5010    1.9066   -0.3819 C.3       1 <1>        -0.0392
      2 C2          6.2995    0.9832    0.8214 C.3       1 <1>         0.0113
      3 N3          4.9093    0.5222    0.8557 N.am      1 <1>        -0.2596
      4 C4          3.9860    1.2378    1.5262 C.2       1 <1>         0.1644
      5 O5          4.3122    2.2621    2.0993 O.2       1 <1>        -0.4464
      6 C6          2.5921    0.7912    1.5695 C.2       1 <1>         0.0815
      7 C7          1.5767    1.5801    2.3069 C.2       1 <1>         0.0128
      8 N8          1.7923    2.7029    2.9606 N.2       1 <1>        -0.3396
      9 N9          0.5768    3.1244    3.5144 N.pl3     1 <1>        -0.3216
     10 C10        -0.3735    2.2264    3.1763 C.2       1 <1>        -0.0547
     11 C11         0.2085    1.2648    2.4273 C.2       1 <1>        -0.0574
     12 C12         2.2352   -0.3608    0.9226 C.2       1 <1>        -0.0220
     13 C13         3.2259   -1.0916    0.2272 C.ar      1 <1>         0.0324
     14 C14         2.9114   -2.2781   -0.4519 C.ar      1 <1>        -0.0175
     15 C15         1.5013   -2.8096   -0.4595 C.3       1 <1>         0.0130
     16 N16         3.8766   -2.9187   -1.0846 N.ar      1 <1>        -0.3430
     17 C17         5.1227   -2.4584   -1.0845 C.ar      1 <1>         0.0464
     18 N18         6.0938   -3.1679   -1.7626 N.pl3     1 <1>        -0.3314
     19 N19         5.4676   -1.3440   -0.4580 N.ar      1 <1>        -0.3130
     20 C20         4.5600   -0.6312    0.1999 C.ar      1 <1>         0.0552
     21 H21         5.8353    2.7655   -0.2962 H         1 <1>         0.0423
     22 H22         7.5352    2.2496   -0.4075 H         1 <1>         0.0566
     23 H23         6.2758    1.3625   -1.2991 H         1 <1>         0.0423
     24 H24         6.9650    0.1243    0.7357 H         1 <1>         0.1226
     25 H25         6.5246    1.5274    1.7386 H         1 <1>         0.1226
     26 H26         0.4411    3.9227    4.0484 H         1 <1>         0.3752
     27 H27        -1.4165    2.2712    3.4531 H         1 <1>         0.1995
     28 H28        -0.2856    0.4039    2.0017 H         1 <1>         0.1183
     29 H29         1.2123   -0.7067    0.9433 H         1 <1>         0.1725
     30 H30         0.9622   -2.3977   -1.3126 H         1 <1>         0.0946
     31 H31         1.5232   -3.8969   -0.5341 H         1 <1>         0.0874
     32 H32         0.9984   -2.5189    0.4628 H         1 <1>         0.0874
     33 H33         5.8605   -3.9865   -2.2277 H         1 <1>         0.2986
     34 H34         7.0094   -2.8477   -1.7739 H         1 <1>         0.2986
@<TRIPOS>BOND
     1    1    2 1
     2    1   21 1
     3    1   22 1
     4    1   23 1
     5    2    3 1
     6    2   24 1
     7    2   25 1
     8    3   20 1
     9    3    4 am
    10    4    5 2
    11    4    6 1
    12    6    7 1
    13    6   12 2
    14    7   11 1
    15    7    8 2
    16    8    9 1
    17    9   10 1
    18    9   26 1
    19   10   11 2
    20   10   27 1
    21   11   28 1
    22   12   13 1
    23   12   29 1
    24   13   20 ar
    25   13   14 ar
    26   14   15 1
    27   14   16 ar
    28   15   30 1
    29   15   31 1
    30   15   32 1
    31   16   17 ar
    32   17   18 1
    33   17   19 ar
    34   18   33 1
    35   18   34 1
    36   19   20 ar
@<TRIPOS>Similarity
1.0530
@<TRIPOS>ShapeSim
0.6243
@<TRIPOS>PharmSim
0.4287
# END
# Name:		COC1=C(C=C(C=C1)CC2C(=O)NC(=O)S2)C(=O)NCC3=CC=C(C=C3)C(F)(F)F
# Created and modified by SHAFTS on Thu Mar 11 05:28:35 2021

# 

@<TRIPOS>MOLECULE
COC1=C(C=C(C=C1)CC2C(=O)NC(=O)S2)C(=O)NCC3=CC=C(C=C3)C(F)(F)F
   46    48     0
SMALL
USER_CHARGE


@<TRIPOS>ATOM
      1 C1         -4.7977    2.0063    0.2000 C.3       1 <1>         0.0306
      2 O2         -3.4863    1.4469    0.1026 O.3       1 <1>        -0.4000
      3 C3         -3.1251    0.9294   -1.0981 C.ar      1 <1>         0.0260
      4 C4         -4.0098    0.9626   -2.1654 C.ar      1 <1>        -0.0561
      5 C5         -3.6408    0.4350   -3.3871 C.ar      1 <1>        -0.0858
      6 C6         -2.3875   -0.1298   -3.5567 C.ar      1 <1>        -0.0899
      7 C7         -1.9975   -0.7020   -4.8952 C.3       1 <1>        -0.0096
      8 C8         -1.3406    0.3882   -5.7441 C.3       1 <1>         0.0670
      9 H9         -0.5074    0.8426   -5.2078 H         1 <1>         0.1178
     10 S10        -2.5630    1.6533   -6.2284 S.3       1 <1>        -0.1573
     11 C11        -2.3777    1.3569   -7.9664 C.2       1 <1>         0.0958
     12 O12        -2.9699    1.9316   -8.8593 O.2       1 <1>        -0.4672
     13 N13        -1.4712    0.3891   -8.1181 N.pl3     1 <1>        -0.3044
     14 C14        -0.8801   -0.1722   -7.0719 C.2       1 <1>         0.0768
     15 O15        -0.0527   -1.0527   -7.1725 O.2       1 <1>        -0.4962
     16 C16        -1.4953   -0.1705   -2.5069 C.ar      1 <1>        -0.0579
     17 C17        -1.8537    0.3638   -1.2673 C.ar      1 <1>         0.0647
     18 C18        -0.9033    0.3241   -0.1394 C.2       1 <1>         0.1100
     19 O19        -1.2190    0.7903    0.9382 O.2       1 <1>        -0.4729
     20 N20         0.3147   -0.2291   -0.3038 N.am      1 <1>        -0.3393
     21 C21         1.2583   -0.2685    0.8162 C.3       1 <1>        -0.0052
     22 C22         2.5361   -0.9332    0.3731 C.ar      1 <1>        -0.0771
     23 C23         2.6818   -2.3023    0.4964 C.ar      1 <1>        -0.0821
     24 C24         3.8540   -2.9121    0.0900 C.ar      1 <1>        -0.0732
     25 C25         4.8803   -2.1527   -0.4402 C.ar      1 <1>         0.0255
     26 C26         6.1583   -2.8174   -0.8827 C.3       1 <1>         0.3458
     27 F27         6.0504   -3.1864   -2.2280 F         1 <1>        -0.1880
     28 F28         7.2254   -1.9260   -0.7278 F         1 <1>        -0.1935
     29 F29         6.3855   -3.9569   -0.1035 F         1 <1>        -0.1935
     30 C30         4.7341   -0.7838   -0.5648 C.ar      1 <1>        -0.0732
     31 C31         3.5605   -0.1745   -0.1619 C.ar      1 <1>        -0.0821
     32 H32        -4.8976    2.8243   -0.5135 H         1 <1>         0.0922
     33 H33        -5.5380    1.2378   -0.0225 H         1 <1>         0.0850
     34 H34        -4.9578    2.3836    1.2100 H         1 <1>         0.1211
     35 H35        -4.9887    1.4014   -2.0409 H         1 <1>         0.1124
     36 H36        -4.3336    0.4627   -4.2151 H         1 <1>         0.1492
     37 H37        -1.2942   -1.5218   -4.7489 H         1 <1>         0.0870
     38 H38        -2.8868   -1.0728   -5.4048 H         1 <1>         0.0799
     39 H39        -0.5191   -0.6119   -2.6437 H         1 <1>         0.1408
     40 H40         0.5665   -0.6009   -1.1635 H         1 <1>         0.2974
     41 H41         1.4731    0.7479    1.1464 H         1 <1>         0.1181
     42 H42         0.8215   -0.8334    1.6396 H         1 <1>         0.1181
     43 H43         1.8801   -2.8955    0.9106 H         1 <1>         0.1363
     44 H44         3.9681   -3.9816    0.1870 H         1 <1>         0.1402
     45 H45         5.5358   -0.1906   -0.9793 H         1 <1>         0.1402
     46 H46         3.4462    0.8950   -0.2592 H         1 <1>         0.1363
@<TRIPOS>BOND
     1    1    2 1
     2    1   32 1
     3    1   33 1
     4    1   34 1
     5    2    3 1
     6    3   17 ar
     7    3    4 ar
     8    4    5 ar
     9    4   35 1
    10    5    6 ar
    11    5   36 1
    12    6    7 1
    13    6   16 ar
    14    7    8 1
    15    7   37 1
    16    7   38 1
    17    8    9 1
    18    8   14 1
    19    8   10 1
    20   10   11 1
    21   11   12 2
    22   11   13 1
    23   13   14 1
    24   14   15 2
    25   16   17 ar
    26   16   39 1
    27   17   18 1
    28   18   19 2
    29   18   20 am
    30   20   21 1
    31   20   40 1
    32   21   22 1
    33   21   41 1
    34   21   42 1
    35   22   31 ar
    36   22   23 ar
    37   23   24 ar
    38   23   43 1
    39   24   25 ar
    40   24   44 1
    41   25   26 1
    42   25   30 ar
    43   26   27 1
    44   26   28 1
    45   26   29 1
    46   30   31 ar
    47   30   45 1
    48   31   46 1
@<TRIPOS>Similarity
1.0499
@<TRIPOS>ShapeSim
0.6670
@<TRIPOS>PharmSim
0.3828
# END
# Name:		CC1=C(C2=C(N1C(=O)C3=CC=C(C=C3)Cl)C=CC(=C2)OC)CC(=O)OCC(=O)O
# Created and modified by SHAFTS on Thu Mar 11 05:28:35 2021

# 

@<TRIPOS>MOLECULE
CC1=C(C2=C(N1C(=O)C3=CC=C(C=C3)Cl)C=CC(=C2)OC)CC(=O)OCC(=O)O
   46    48     0
SMALL
USER_CHARGE


@<TRIPOS>ATOM
      1 C1          5.9140   -4.0990   -2.3313 C.3       1 <1>         0.0300
      2 O2          6.0131   -2.8951   -1.5679 O.3       1 <1>        -0.3200
      3 C3          4.8679   -2.4241   -1.0062 C.ar      1 <1>         0.1100
      4 C4          3.6733   -3.1151   -1.1846 C.ar      1 <1>        -0.1800
      5 C5          2.5040   -2.6508   -0.6218 C.ar      1 <1>        -0.0900
      6 C6          2.5111   -1.4833    0.1307 C.ar      1 <1>         0.0800
      7 C7          3.7160   -0.7827    0.3130 C.ar      1 <1>        -0.0300
      8 C8          4.8956   -1.2641   -0.2557 C.ar      1 <1>        -0.1100
      9 C9          3.3886    0.3842    1.1397 C.2       1 <1>        -0.1400
     10 C10         4.3494    1.4459    1.6092 C.3       1 <1>        -0.0400
     11 C11         4.4063    2.5570    0.5926 C.2       1 <1>         0.4500
     12 O12         3.7354    2.4932   -0.4103 O.2       1 <1>        -0.5200
     13 O13         5.2023    3.6175    0.8012 O.3       1 <1>        -0.3200
     14 C14         5.2066    4.6495   -0.2201 C.3       1 <1>         0.0100
     15 C15         6.1515    5.7518    0.1836 C.2       1 <1>         0.5000
     16 O16         6.7644    5.6749    1.2348 O.co2     1 <1>        -0.5000
     17 O17         6.3030    6.7207   -0.5409 O.co2     1 <1>        -0.5000
     18 C18         2.0747    0.3294    1.3987 C.2       1 <1>         0.1200
     19 C19         1.3117    1.3370    2.2196 C.3       1 <1>        -0.1000
     20 N20         1.5265   -0.7814    0.8046 N.am      1 <1>        -0.5100
     21 C21         0.2272   -1.1339    0.8677 C.2       1 <1>         0.6100
     22 O22        -0.1476   -1.9244    1.7111 O.2       1 <1>        -0.4300
     23 C23        -0.7409   -0.5596   -0.0881 C.ar      1 <1>        -0.1600
     24 C24        -0.2974    0.2613   -1.1274 C.ar      1 <1>        -0.0400
     25 C25        -1.2062    0.7941   -2.0168 C.ar      1 <1>        -0.1200
     26 C26        -2.5566    0.5167   -1.8813 C.ar      1 <1>         0.0000
     27 Cl27       -3.6947    1.1909   -3.0056 Cl        1 <1>        -0.0600
     28 C28        -3.0027   -0.2968   -0.8526 C.ar      1 <1>        -0.1300
     29 C29        -2.1031   -0.8399    0.0401 C.ar      1 <1>        -0.0400
     30 H30         5.5478   -4.9040   -1.6941 H         1 <1>         0.0500
     31 H31         5.2221   -3.9479   -3.1598 H         1 <1>         0.0500
     32 H32         6.8966   -4.3634   -2.7220 H         1 <1>         0.1000
     33 H33         3.6623   -4.0230   -1.7694 H         1 <1>         0.1300
     34 H34         1.5821   -3.1946   -0.7661 H         1 <1>         0.1200
     35 H35         5.8232   -0.7284   -0.1177 H         1 <1>         0.1400
     36 H36         4.0108    1.8453    2.5652 H         1 <1>         0.1100
     37 H37         5.3418    1.0110    1.7280 H         1 <1>         0.1200
     38 H38         5.5319    4.2211   -1.1681 H         1 <1>         0.0700
     39 H39         4.2010    5.0553   -0.3309 H         1 <1>         0.0700
     40 H40         0.9376    2.1272    1.5687 H         1 <1>         0.0900
     41 H41         0.4732    0.8444    2.7120 H         1 <1>         0.0700
     42 H42         1.9725    1.7680    2.9717 H         1 <1>         0.1000
     43 H43         0.7551    0.4786   -1.2339 H         1 <1>         0.1500
     44 H44        -0.8646    1.4294   -2.8206 H         1 <1>         0.1500
     45 H45        -4.0568   -0.5091   -0.7520 H         1 <1>         0.1400
     46 H46        -2.4521   -1.4743    0.8415 H         1 <1>         0.1500
@<TRIPOS>BOND
     1    1    2 1
     2    1   30 1
     3    1   31 1
     4    1   32 1
     5    2    3 1
     6    3    8 ar
     7    3    4 ar
     8    4    5 ar
     9    4   33 1
    10    5    6 ar
    11    5   34 1
    12    6   20 1
    13    6    7 ar
    14    7    8 ar
    15    7    9 1
    16    8   35 1
    17    9   10 1
    18    9   18 2
    19   10   11 1
    20   10   36 1
    21   10   37 1
    22   11   12 2
    23   11   13 1
    24   13   14 1
    25   14   15 1
    26   14   38 1
    27   14   39 1
    28   15   16 ar
    29   15   17 ar
    30   18   19 1
    31   18   20 1
    32   19   40 1
    33   19   41 1
    34   19   42 1
    35   20   21 am
    36   21   22 2
    37   21   23 1
    38   23   29 ar
    39   23   24 ar
    40   24   25 ar
    41   24   43 1
    42   25   26 ar
    43   25   44 1
    44   26   27 1
    45   26   28 ar
    46   28   29 ar
    47   28   45 1
    48   29   46 1
@<TRIPOS>Similarity
1.0441
@<TRIPOS>ShapeSim
0.7624
@<TRIPOS>PharmSim
0.2817
# END
# Name:		CCCCOC1=C(C=NC2=NNC=C12)C(=O)C3=C(C=C(C=C3F)C)F
# Created and modified by SHAFTS on Thu Mar 11 05:28:35 2021

# 

@<TRIPOS>MOLECULE
CCCCOC1=C(C=NC2=NNC=C12)C(=O)C3=C(C=C(C=C3F)C)F
   42    44     0
SMALL
USER_CHARGE


@<TRIPOS>ATOM
      1 C1          1.8779    5.1664    3.9465 C.3       1 <1>        -0.0699
      2 C2          2.1453    4.4137    2.6415 C.3       1 <1>        -0.0677
      3 C3          1.7512    2.9449    2.8101 C.3       1 <1>        -0.0380
      4 C4          2.0186    2.1922    1.5051 C.3       1 <1>         0.0222
      5 O5          1.6504    0.8204    1.6626 O.3       1 <1>        -0.3916
      6 C6          1.8252    0.0117    0.5939 C.ar      1 <1>         0.0546
      7 C7          0.8110   -0.1621   -0.3565 C.ar      1 <1>         0.0939
      8 C8         -0.4703    0.5411   -0.2009 C.2       1 <1>         0.1348
      9 O9         -0.6878    1.1950    0.8023 O.2       1 <1>        -0.4282
     10 C10        -1.4932    0.4541   -1.2610 C.ar      1 <1>         0.1069
     11 C11        -1.4451    1.3216   -2.3581 C.ar      1 <1>         0.1047
     12 F12        -0.4612    2.2428   -2.4508 F         1 <1>        -0.2455
     13 C13        -2.4069    1.2329   -3.3466 C.ar      1 <1>        -0.0318
     14 C14        -3.4149    0.2903   -3.2538 C.ar      1 <1>        -0.0884
     15 C15        -4.4592    0.2012   -4.3367 C.3       1 <1>        -0.0292
     16 C16        -3.4698   -0.5714   -2.1731 C.ar      1 <1>        -0.0318
     17 C17        -2.5135   -0.5000   -1.1780 C.ar      1 <1>         0.1047
     18 F18        -2.5687   -1.3428   -0.1235 F         1 <1>        -0.2455
     19 C19         1.0190   -1.0096   -1.4604 C.ar      1 <1>         0.0197
     20 N20         2.1372   -1.6564   -1.6459 N.ar      1 <1>        -0.3419
     21 C21         3.1680   -1.5520   -0.7863 C.ar      1 <1>         0.0580
     22 N22         4.3752   -2.0798   -0.7347 N.2       1 <1>        -0.3022
     23 N23         5.0327   -1.6100    0.4070 N.pl3     1 <1>        -0.2865
     24 C24         4.2339   -0.7770    1.0845 C.2       1 <1>        -0.0008
     25 C25         3.0401   -0.6829    0.3939 C.ar      1 <1>         0.0503
     26 H26         0.8183    5.1006    4.1933 H         1 <1>         0.0348
     27 H27         2.4662    4.7220    4.7493 H         1 <1>         0.0348
     28 H28         2.1588    6.2127    3.8264 H         1 <1>         0.0348
     29 H29         1.5570    4.8579    1.8387 H         1 <1>         0.0455
     30 H30         3.2050    4.4794    2.3947 H         1 <1>         0.0384
     31 H31         2.3395    2.5006    3.6130 H         1 <1>         0.0554
     32 H32         0.6916    2.8791    3.0569 H         1 <1>         0.0625
     33 H33         1.4302    2.6365    0.7023 H         1 <1>         0.0994
     34 H34         3.0782    2.2580    1.2584 H         1 <1>         0.0994
     35 H35        -2.3716    1.9018   -4.1938 H         1 <1>         0.1432
     36 H36        -4.1263   -0.4955   -5.1060 H         1 <1>         0.0733
     37 H37        -5.3974   -0.1516   -3.9085 H         1 <1>         0.0661
     38 H38        -4.6092    1.1862   -4.7787 H         1 <1>         0.0661
     39 H39        -4.2601   -1.3048   -2.1088 H         1 <1>         0.1432
     40 H40         0.2234   -1.1295   -2.1810 H         1 <1>         0.2466
     41 H41         5.9347   -1.8525    0.6693 H         1 <1>         0.4031
     42 H42         4.4793   -0.2668    2.0041 H         1 <1>         0.2425
@<TRIPOS>BOND
     1    1    2 1
     2    1   26 1
     3    1   27 1
     4    1   28 1
     5    2    3 1
     6    2   29 1
     7    2   30 1
     8    3    4 1
     9    3   31 1
    10    3   32 1
    11    4    5 1
    12    4   33 1
    13    4   34 1
    14    5    6 1
    15    6   25 ar
    16    6    7 ar
    17    7    8 1
    18    7   19 ar
    19    8    9 2
    20    8   10 1
    21   10   17 ar
    22   10   11 ar
    23   11   12 1
    24   11   13 ar
    25   13   14 ar
    26   13   35 1
    27   14   15 1
    28   14   16 ar
    29   15   36 1
    30   15   37 1
    31   15   38 1
    32   16   17 ar
    33   16   39 1
    34   17   18 1
    35   19   20 ar
    36   19   40 1
    37   20   21 ar
    38   21   25 ar
    39   21   22 2
    40   22   23 1
    41   23   24 1
    42   23   41 1
    43   24   25 2
    44   24   42 1
@<TRIPOS>Similarity
1.0429
@<TRIPOS>ShapeSim
0.6957
@<TRIPOS>PharmSim
0.3472
# END
# Name:		CCCCOC1=C2C(NN=C2)=NC=C1C(C3=C(F)C=C(C)C=C3F)=O
# Created and modified by SHAFTS on Thu Mar 11 05:28:35 2021

# 

@<TRIPOS>MOLECULE
CCCCOC1=C2C(NN=C2)=NC=C1C(C3=C(F)C=C(C)C=C3F)=O
   42    44     0
SMALL
USER_CHARGE


@<TRIPOS>ATOM
      1 C1          1.8779    5.1664    3.9465 C.3       1 <1>        -0.0699
      2 C2          2.1453    4.4137    2.6415 C.3       1 <1>        -0.0677
      3 C3          1.7512    2.9449    2.8101 C.3       1 <1>        -0.0380
      4 C4          2.0186    2.1922    1.5051 C.3       1 <1>         0.0222
      5 O5          1.6504    0.8204    1.6626 O.3       1 <1>        -0.3916
      6 C6          1.8252    0.0117    0.5939 C.ar      1 <1>         0.0546
      7 C7          0.8110   -0.1621   -0.3565 C.ar      1 <1>         0.0939
      8 C8         -0.4703    0.5411   -0.2009 C.2       1 <1>         0.1348
      9 O9         -0.6878    1.1950    0.8023 O.2       1 <1>        -0.4282
     10 C10        -1.4932    0.4541   -1.2610 C.ar      1 <1>         0.1069
     11 C11        -1.4451    1.3216   -2.3581 C.ar      1 <1>         0.1047
     12 F12        -0.4612    2.2428   -2.4508 F         1 <1>        -0.2455
     13 C13        -2.4069    1.2329   -3.3466 C.ar      1 <1>        -0.0318
     14 C14        -3.4149    0.2903   -3.2538 C.ar      1 <1>        -0.0884
     15 C15        -4.4592    0.2012   -4.3367 C.3       1 <1>        -0.0292
     16 C16        -3.4698   -0.5714   -2.1731 C.ar      1 <1>        -0.0318
     17 C17        -2.5135   -0.5000   -1.1780 C.ar      1 <1>         0.1047
     18 F18        -2.5687   -1.3428   -0.1235 F         1 <1>        -0.2455
     19 C19         1.0190   -1.0096   -1.4604 C.ar      1 <1>         0.0197
     20 N20         2.1372   -1.6564   -1.6459 N.ar      1 <1>        -0.3419
     21 C21         3.1680   -1.5520   -0.7863 C.ar      1 <1>         0.0580
     22 N22         4.3752   -2.0798   -0.7347 N.2       1 <1>        -0.3022
     23 N23         5.0327   -1.6100    0.4070 N.pl3     1 <1>        -0.2865
     24 C24         4.2339   -0.7770    1.0845 C.2       1 <1>        -0.0008
     25 C25         3.0401   -0.6829    0.3939 C.ar      1 <1>         0.0503
     26 H26         0.8183    5.1006    4.1933 H         1 <1>         0.0348
     27 H27         2.4662    4.7220    4.7493 H         1 <1>         0.0348
     28 H28         2.1588    6.2127    3.8264 H         1 <1>         0.0348
     29 H29         1.5570    4.8579    1.8387 H         1 <1>         0.0455
     30 H30         3.2050    4.4794    2.3947 H         1 <1>         0.0384
     31 H31         2.3395    2.5006    3.6130 H         1 <1>         0.0554
     32 H32         0.6916    2.8791    3.0569 H         1 <1>         0.0625
     33 H33         1.4302    2.6365    0.7023 H         1 <1>         0.0994
     34 H34         3.0782    2.2580    1.2584 H         1 <1>         0.0994
     35 H35        -2.3716    1.9018   -4.1938 H         1 <1>         0.1432
     36 H36        -4.1263   -0.4955   -5.1060 H         1 <1>         0.0733
     37 H37        -5.3974   -0.1516   -3.9085 H         1 <1>         0.0661
     38 H38        -4.6092    1.1862   -4.7787 H         1 <1>         0.0661
     39 H39        -4.2601   -1.3048   -2.1088 H         1 <1>         0.1432
     40 H40         0.2234   -1.1295   -2.1810 H         1 <1>         0.2466
     41 H41         5.9347   -1.8525    0.6693 H         1 <1>         0.4031
     42 H42         4.4793   -0.2668    2.0041 H         1 <1>         0.2425
@<TRIPOS>BOND
     1    1    2 1
     2    1   26 1
     3    1   27 1
     4    1   28 1
     5    2    3 1
     6    2   29 1
     7    2   30 1
     8    3    4 1
     9    3   31 1
    10    3   32 1
    11    4    5 1
    12    4   33 1
    13    4   34 1
    14    5    6 1
    15    6   25 ar
    16    6    7 ar
    17    7    8 1
    18    7   19 ar
    19    8    9 2
    20    8   10 1
    21   10   17 ar
    22   10   11 ar
    23   11   12 1
    24   11   13 ar
    25   13   14 ar
    26   13   35 1
    27   14   15 1
    28   14   16 ar
    29   15   36 1
    30   15   37 1
    31   15   38 1
    32   16   17 ar
    33   16   39 1
    34   17   18 1
    35   19   20 ar
    36   19   40 1
    37   20   21 ar
    38   21   25 ar
    39   21   22 2
    40   22   23 1
    41   23   24 1
    42   23   41 1
    43   24   25 2
    44   24   42 1
@<TRIPOS>Similarity
1.0429
@<TRIPOS>ShapeSim
0.6957
@<TRIPOS>PharmSim
0.3472
# END
# Name:		CCCCOC1=C(C=NC2=NNC=C12)C(=O)C3=C(C=C(C=C3F)C)F
# Created and modified by SHAFTS on Thu Mar 11 05:28:35 2021

# 

@<TRIPOS>MOLECULE
CCCCOC1=C(C=NC2=NNC=C12)C(=O)C3=C(C=C(C=C3F)C)F
   42    44     0
SMALL
USER_CHARGE


@<TRIPOS>ATOM
      1 C1          1.8779    5.1664    3.9465 C.3       1 <1>        -0.0699
      2 C2          2.1453    4.4137    2.6415 C.3       1 <1>        -0.0677
      3 C3          1.7512    2.9449    2.8101 C.3       1 <1>        -0.0380
      4 C4          2.0186    2.1922    1.5051 C.3       1 <1>         0.0222
      5 O5          1.6504    0.8204    1.6626 O.3       1 <1>        -0.3916
      6 C6          1.8252    0.0117    0.5939 C.ar      1 <1>         0.0546
      7 C7          0.8110   -0.1621   -0.3565 C.ar      1 <1>         0.0939
      8 C8         -0.4703    0.5411   -0.2009 C.2       1 <1>         0.1348
      9 O9         -0.6878    1.1950    0.8023 O.2       1 <1>        -0.4282
     10 C10        -1.4932    0.4541   -1.2610 C.ar      1 <1>         0.1069
     11 C11        -1.4451    1.3216   -2.3581 C.ar      1 <1>         0.1047
     12 F12        -0.4612    2.2428   -2.4508 F         1 <1>        -0.2455
     13 C13        -2.4069    1.2329   -3.3466 C.ar      1 <1>        -0.0318
     14 C14        -3.4149    0.2903   -3.2538 C.ar      1 <1>        -0.0884
     15 C15        -4.4592    0.2012   -4.3367 C.3       1 <1>        -0.0292
     16 C16        -3.4698   -0.5714   -2.1731 C.ar      1 <1>        -0.0318
     17 C17        -2.5135   -0.5000   -1.1780 C.ar      1 <1>         0.1047
     18 F18        -2.5687   -1.3428   -0.1235 F         1 <1>        -0.2455
     19 C19         1.0190   -1.0096   -1.4604 C.ar      1 <1>         0.0197
     20 N20         2.1372   -1.6564   -1.6459 N.ar      1 <1>        -0.3419
     21 C21         3.1680   -1.5520   -0.7863 C.ar      1 <1>         0.0580
     22 N22         4.3752   -2.0798   -0.7347 N.2       1 <1>        -0.3022
     23 N23         5.0327   -1.6100    0.4070 N.pl3     1 <1>        -0.2865
     24 C24         4.2339   -0.7770    1.0845 C.2       1 <1>        -0.0008
     25 C25         3.0401   -0.6829    0.3939 C.ar      1 <1>         0.0503
     26 H26         0.8183    5.1006    4.1933 H         1 <1>         0.0348
     27 H27         2.4662    4.7220    4.7493 H         1 <1>         0.0348
     28 H28         2.1588    6.2127    3.8264 H         1 <1>         0.0348
     29 H29         1.5570    4.8579    1.8387 H         1 <1>         0.0455
     30 H30         3.2050    4.4794    2.3947 H         1 <1>         0.0384
     31 H31         2.3395    2.5006    3.6130 H         1 <1>         0.0554
     32 H32         0.6916    2.8791    3.0569 H         1 <1>         0.0625
     33 H33         1.4302    2.6365    0.7023 H         1 <1>         0.0994
     34 H34         3.0782    2.2580    1.2584 H         1 <1>         0.0994
     35 H35        -2.3716    1.9018   -4.1938 H         1 <1>         0.1432
     36 H36        -4.1263   -0.4955   -5.1060 H         1 <1>         0.0733
     37 H37        -5.3974   -0.1516   -3.9085 H         1 <1>         0.0661
     38 H38        -4.6092    1.1862   -4.7787 H         1 <1>         0.0661
     39 H39        -4.2601   -1.3048   -2.1088 H         1 <1>         0.1432
     40 H40         0.2234   -1.1295   -2.1810 H         1 <1>         0.2466
     41 H41         5.9347   -1.8525    0.6693 H         1 <1>         0.4031
     42 H42         4.4793   -0.2668    2.0041 H         1 <1>         0.2425
@<TRIPOS>BOND
     1    1    2 1
     2    1   26 1
     3    1   27 1
     4    1   28 1
     5    2    3 1
     6    2   29 1
     7    2   30 1
     8    3    4 1
     9    3   31 1
    10    3   32 1
    11    4    5 1
    12    4   33 1
    13    4   34 1
    14    5    6 1
    15    6   25 ar
    16    6    7 ar
    17    7    8 1
    18    7   19 ar
    19    8    9 2
    20    8   10 1
    21   10   17 ar
    22   10   11 ar
    23   11   12 1
    24   11   13 ar
    25   13   14 ar
    26   13   35 1
    27   14   15 1
    28   14   16 ar
    29   15   36 1
    30   15   37 1
    31   15   38 1
    32   16   17 ar
    33   16   39 1
    34   17   18 1
    35   19   20 ar
    36   19   40 1
    37   20   21 ar
    38   21   25 ar
    39   21   22 2
    40   22   23 1
    41   23   24 1
    42   23   41 1
    43   24   25 2
    44   24   42 1
@<TRIPOS>Similarity
1.0429
@<TRIPOS>ShapeSim
0.6957
@<TRIPOS>PharmSim
0.3472
# END
# Name:		NNC1=C2C(C=CC=C2)=CN=N1
# Created and modified by SHAFTS on Thu Mar 11 05:28:35 2021

# 

@<TRIPOS>MOLECULE
NNC1=C2C(C=CC=C2)=CN=N1
   21    22     0
SMALL
USER_CHARGE


@<TRIPOS>ATOM
      1 N1         -0.8043    0.5893    0.4204 N.3       1 <1>         0.3699
      2 N2          0.2609   -0.1276   -0.0460 N.pl3     1 <1>        -0.4948
      3 C3          1.4821   -0.0551    0.6034 C.ar      1 <1>         0.0552
      4 C4          2.5946   -0.7866    0.1288 C.ar      1 <1>         0.0280
      5 C5          2.5331   -1.6101   -1.0001 C.ar      1 <1>        -0.0547
      6 C6          3.6494   -2.2851   -1.3981 C.ar      1 <1>        -0.0684
      7 C7          4.8481   -2.1673   -0.6983 C.ar      1 <1>        -0.0644
      8 C8          4.9426   -1.3737    0.4061 C.ar      1 <1>        -0.0504
      9 C9          3.8155   -0.6654    0.8421 C.ar      1 <1>         0.0016
     10 C10         3.8338    0.1735    1.9717 C.ar      1 <1>         0.0488
     11 N11         2.7350    0.8044    2.3164 N.ar      1 <1>        -0.2747
     12 N12         1.6307    0.7037    1.6752 N.ar      1 <1>        -0.2578
     13 H13         0.8640    1.2036    1.9961 H         1 <1>         0.4598
     14 H14        -0.5816    1.5717    0.4781 H         1 <1>         0.0145
     15 H15        -1.6213    0.4366   -0.1517 H         1 <1>         0.0453
     16 H16         0.1620   -0.6874   -0.8320 H         1 <1>         0.3319
     17 H17         1.6100   -1.7110   -1.5514 H         1 <1>         0.1521
     18 H18         3.6031   -2.9213   -2.2695 H         1 <1>         0.1579
     19 H19         5.7163   -2.7137   -1.0360 H         1 <1>         0.1645
     20 H20         5.8780   -1.2919    0.9399 H         1 <1>         0.1702
     21 H21         4.7391    0.2966    2.5475 H         1 <1>         0.2757
@<TRIPOS>BOND
     1    1    2 1
     2    1   14 1
     3    1   15 1
     4    2    3 1
     5    2   16 1
     6    3   12 ar
     7    3    4 ar
     8    4    9 ar
     9    4    5 ar
    10    5    6 ar
    11    5   17 1
    12    6    7 ar
    13    6   18 1
    14    7    8 ar
    15    7   19 1
    16    8    9 ar
    17    8   20 1
    18    9   10 ar
    19   10   11 ar
    20   10   21 1
    21   11   12 ar
    22   12   13 1
@<TRIPOS>Similarity
1.0423
@<TRIPOS>ShapeSim
0.6527
@<TRIPOS>PharmSim
0.3896
# END
# Name:		C1C(C2C(C2O1)C(=O)O)(C(=O)O)N
# Created and modified by SHAFTS on Thu Mar 11 05:28:35 2021

# 

@<TRIPOS>MOLECULE
C1C(C2C(C2O1)C(=O)O)(C(=O)O)N
   21    22     0
SMALL
USER_CHARGE


@<TRIPOS>ATOM
      1 N1          4.7005   -0.2662    2.4385 N.4       1 <1>        -0.6000
      2 H2          5.5474    0.0588    1.9966 H         1 <1>         0.4300
      3 H3          4.7215   -1.2726    2.5067 H         1 <1>         0.4200
      4 H4          4.6293    0.1321    3.3629 H         1 <1>         0.4300
      5 C5          3.5405    0.1462    1.6370 C.3       1 <1>        -0.0300
      6 C6          3.4317    1.6485    1.5879 C.2       1 <1>         0.5100
      7 O7          4.2577    2.3386    2.1606 O.co2     1 <1>        -0.5000
      8 O8          2.5176    2.1738    0.9756 O.co2     1 <1>        -0.5000
      9 C9          2.2370   -0.4888    2.1846 C.3       1 <1>         0.0600
     10 O10         2.2527   -1.8217    1.6301 O.3       1 <1>        -0.3600
     11 C11         2.7328   -1.7081    0.2794 C.3       1 <1>         0.0300
     12 H12         2.0327   -1.9471   -0.5212 H         1 <1>         0.1500
     13 C13         3.6170   -0.4479    0.2102 C.3       1 <1>        -0.1800
     14 H14         3.5847    0.2396   -0.6350 H         1 <1>         0.1500
     15 C15         4.2340   -1.8793    0.0315 C.3       1 <1>        -0.1700
     16 H16         4.8411   -2.2703    0.8479 H         1 <1>         0.0900
     17 C17         4.6739   -2.2782   -1.3535 C.2       1 <1>         0.5200
     18 O18         5.7059   -2.9089   -1.5073 O.co2     1 <1>        -0.5000
     19 O19         3.9978   -1.9702   -2.3203 O.co2     1 <1>        -0.5000
     20 H20         2.2564   -0.5260    3.2739 H         1 <1>         0.1000
     21 H21         1.3647    0.0625    1.8338 H         1 <1>         0.1100
@<TRIPOS>BOND
     1    1    2 1
     2    1    3 1
     3    1    4 1
     4    1    5 1
     5    5   13 1
     6    5    6 1
     7    5    9 1
     8    6    7 ar
     9    6    8 ar
    10    9   10 1
    11    9   20 1
    12    9   21 1
    13   10   11 1
    14   11   12 1
    15   11   15 1
    16   11   13 1
    17   13   14 1
    18   13   15 1
    19   15   16 1
    20   15   17 1
    21   17   18 ar
    22   17   19 ar
@<TRIPOS>Similarity
1.0407
@<TRIPOS>ShapeSim
0.5821
@<TRIPOS>PharmSim
0.4586
# END
# Name:		O=C(C1=[N+]2C=CC3=C1NC4=CC=CC=C43)C5=C2C=CC=C5
# Created and modified by SHAFTS on Thu Mar 11 05:28:35 2021

# 

@<TRIPOS>MOLECULE
O=C(C1=[N+]2C=CC3=C1NC4=CC=CC=C43)C5=C2C=CC=C5
   32    36     0
SMALL
USER_CHARGE


@<TRIPOS>ATOM
      1 O1         -0.0777   -1.7613   -3.7827 O.2       1 <1>        -0.3859
      2 C2         -0.4691   -1.0442   -2.8836 C.2       1 <1>         0.1835
      3 C3         -1.7834   -0.3700   -2.7682 C.ar      1 <1>         0.0550
      4 C4         -2.9110   -0.3318   -3.5749 C.ar      1 <1>        -0.0445
      5 C5         -4.0120    0.4116   -3.1800 C.ar      1 <1>        -0.0613
      6 C6         -3.9856    1.1107   -1.9885 C.ar      1 <1>        -0.0601
      7 C7         -2.8642    1.0789   -1.1759 C.ar      1 <1>        -0.0385
      8 C8         -1.7508    0.3382   -1.5567 C.ar      1 <1>         0.0174
      9 N9         -0.5283    0.1477   -0.9308 N.ar      1 <1>        -0.3151
     10 C10         0.2605   -0.6520   -1.6501 C.ar      1 <1>         0.1441
     11 C11         1.5453   -0.9824   -1.2089 C.ar      1 <1>         0.0431
     12 C12         1.9950   -0.4505    0.0203 C.ar      1 <1>         0.0073
     13 C13         1.1418    0.3784    0.7381 C.ar      1 <1>         0.0022
     14 C14        -0.1150    0.6512    0.2320 C.ar      1 <1>         0.0315
     15 C15         3.3589   -0.9612    0.2228 C.ar      1 <1>        -0.0258
     16 C16         3.6481   -1.7665   -0.8905 C.ar      1 <1>        -0.0385
     17 C17         4.8875   -2.3919   -0.9741 C.ar      1 <1>        -0.0531
     18 C18         5.8179   -2.2192    0.0286 C.ar      1 <1>        -0.0752
     19 C19         5.5311   -1.4239    1.1274 C.ar      1 <1>        -0.0795
     20 C20         4.3090   -0.7952    1.2288 C.ar      1 <1>        -0.0707
     21 N21         2.5478   -1.7633   -1.7324 N.pl3     1 <1>        -0.3285
     22 H22        -2.9309   -0.8783   -4.5063 H         1 <1>         0.1727
     23 H23        -4.8922    0.4447   -3.8049 H         1 <1>         0.1600
     24 H24        -4.8475    1.6880   -1.6880 H         1 <1>         0.1628
     25 H25        -2.8546    1.6295   -0.2470 H         1 <1>         0.1686
     26 H26         1.4551    0.8012    1.6812 H         1 <1>         0.2084
     27 H27        -0.7776    1.2959    0.7904 H         1 <1>         0.2542
     28 H28         5.1213   -3.0139   -1.8254 H         1 <1>         0.1400
     29 H29         6.7783   -2.7081   -0.0424 H         1 <1>         0.1553
     30 H30         6.2681   -1.2964    1.9063 H         1 <1>         0.1388
     31 H31         4.0878   -0.1763    2.0856 H         1 <1>         0.1556
     32 H32         2.4927   -2.2441   -2.5730 H         1 <1>         0.3558
@<TRIPOS>BOND
     1    1    2 2
     2    2   10 1
     3    2    3 1
     4    3    8 ar
     5    3    4 ar
     6    4    5 ar
     7    4   22 1
     8    5    6 ar
     9    5   23 1
    10    6    7 ar
    11    6   24 1
    12    7    8 ar
    13    7   25 1
    14    8    9 1
    15    9   14 ar
    16    9   10 ar
    17   10   11 ar
    18   11   21 1
    19   11   12 ar
    20   12   13 ar
    21   12   15 1
    22   13   14 ar
    23   13   26 1
    24   14   27 1
    25   15   20 ar
    26   15   16 ar
    27   16   17 ar
    28   16   21 1
    29   17   18 ar
    30   17   28 1
    31   18   19 ar
    32   18   29 1
    33   19   20 ar
    34   19   30 1
    35   20   31 1
    36   21   32 1
@<TRIPOS>Similarity
1.0402
@<TRIPOS>ShapeSim
0.7205
@<TRIPOS>PharmSim
0.3198
# END
# Name:		CC12C3=CC=CC=C3CC(N1)C4=CC=CC=C24
# Created and modified by SHAFTS on Thu Mar 11 05:28:35 2021

# 

@<TRIPOS>MOLECULE
CC12C3=CC=CC=C3CC(N1)C4=CC=CC=C24
   33    36     0
SMALL
USER_CHARGE


@<TRIPOS>ATOM
      1 C1          0.1960   -2.1959   -1.4770 C.3       1 <1>        -0.0459
      2 C2          0.8118   -1.5516   -0.2334 C.3       1 <1>        -0.0918
      3 N3          0.3695   -0.1397   -0.0131 N.4       1 <1>         0.4283
      4 H4          0.8791    0.4977   -0.6066 H         1 <1>         0.1729
      5 H5         -0.6257   -0.0449   -0.1501 H         1 <1>         0.1653
      6 C6          0.7367    0.0514    1.4224 C.3       1 <1>        -0.0831
      7 H7          0.1575    0.8554    1.8766 H         1 <1>         0.1337
      8 C8          2.2363    0.3554    1.4668 C.3       1 <1>        -0.0353
      9 C9          2.9982   -0.5898    0.5739 C.ar      1 <1>        -0.1079
     10 C10         4.3836   -0.5585    0.5836 C.ar      1 <1>        -0.0950
     11 C11         5.1017   -1.4098   -0.2338 C.ar      1 <1>        -0.0923
     12 C12         4.4433   -2.2951   -1.0662 C.ar      1 <1>        -0.0923
     13 C13         3.0601   -2.3307   -1.0750 C.ar      1 <1>        -0.0943
     14 C14         2.3293   -1.5065   -0.2678 C.ar      1 <1>        -0.1142
     15 C15         0.4257   -1.2710    2.0599 C.ar      1 <1>        -0.1154
     16 C16         0.1668   -1.6040    3.3752 C.ar      1 <1>        -0.0883
     17 C17        -0.1097   -2.9400    3.6430 C.ar      1 <1>        -0.0853
     18 C18        -0.1278   -3.8919    2.6449 C.ar      1 <1>        -0.0839
     19 C19         0.1404   -3.5624    1.3201 C.ar      1 <1>        -0.0844
     20 C20         0.4478   -2.2571    1.0524 C.ar      1 <1>        -0.1106
     21 H21         0.5621   -3.2178   -1.5759 H         1 <1>         0.0811
     22 H22        -0.8897   -2.2066   -1.3809 H         1 <1>         0.0668
     23 H23         0.4769   -1.6223   -2.3603 H         1 <1>         0.0668
     24 H24         2.4052    1.3792    1.1330 H         1 <1>         0.0935
     25 H25         2.5941    0.2488    2.4909 H         1 <1>         0.1007
     26 H26         4.9027    0.1327    1.2311 H         1 <1>         0.1342
     27 H27         6.1814   -1.3831   -0.2226 H         1 <1>         0.1360
     28 H28         5.0064   -2.9565   -1.7080 H         1 <1>         0.1324
     29 H29         2.5401   -3.0196   -1.7242 H         1 <1>         0.1300
     30 H30         0.1790   -0.8613    4.1591 H         1 <1>         0.1501
     31 H31        -0.3164   -3.2404    4.6596 H         1 <1>         0.1360
     32 H32        -0.3551   -4.9169    2.8979 H         1 <1>         0.1382
     33 H33         0.1263   -4.3066    0.5376 H         1 <1>         0.1439
@<TRIPOS>BOND
     1    1    2 1
     2    1   21 1
     3    1   22 1
     4    1   23 1
     5    2   14 1
     6    2   20 1
     7    2    3 1
     8    3    4 1
     9    3    5 1
    10    3    6 1
    11    6    7 1
    12    6    8 1
    13    6   15 1
    14    8    9 1
    15    8   24 1
    16    8   25 1
    17    9   14 ar
    18    9   10 ar
    19   10   11 ar
    20   10   26 1
    21   11   12 ar
    22   11   27 1
    23   12   13 ar
    24   12   28 1
    25   13   14 ar
    26   13   29 1
    27   15   20 ar
    28   15   16 ar
    29   16   17 ar
    30   16   30 1
    31   17   18 ar
    32   17   31 1
    33   18   19 ar
    34   18   32 1
    35   19   20 ar
    36   19   33 1
@<TRIPOS>Similarity
1.0397
@<TRIPOS>ShapeSim
0.5262
@<TRIPOS>PharmSim
0.5135
# END
# Name:		CC(C1=C(N=C2C=C(C=CC2=C1)F)C3=CC=CC=N3)NC4=NC=NC5=C4NC=N5
# Created and modified by SHAFTS on Thu Mar 11 05:28:35 2021

# 

@<TRIPOS>MOLECULE
CC(C1=C(N=C2C=C(C=CC2=C1)F)C3=CC=CC=N3)NC4=NC=NC5=C4NC=N5
   45    49     0
SMALL
USER_CHARGE


@<TRIPOS>ATOM
      1 C1          0.7876   -0.2408    2.0273 C.3       1 <1>        -0.0376
      2 C2          1.2735    0.3640    0.7086 C.3       1 <1>         0.0040
      3 H3          1.2693    1.4513    0.7842 H         1 <1>         0.1764
      4 N4          0.3834   -0.0535   -0.3775 N.pl3     1 <1>        -0.3558
      5 C5         -0.8108    0.6162   -0.5906 C.ar      1 <1>         0.0345
      6 C6         -1.6733    0.2279   -1.6172 C.ar      1 <1>         0.0598
      7 N7         -1.6619   -0.7504   -2.5890 N.pl3     1 <1>        -0.3264
      8 C8         -2.8035   -0.6185   -3.3014 C.2       1 <1>         0.0256
      9 N9         -3.5121    0.3712   -2.8339 N.2       1 <1>        -0.3324
     10 C10        -2.8727    0.9377   -1.7932 C.ar      1 <1>         0.0500
     11 N11        -3.1411    1.9568   -0.9708 N.ar      1 <1>        -0.3324
     12 C12        -2.2981    2.2862   -0.0172 C.ar      1 <1>         0.0463
     13 N13        -1.1636    1.6404    0.1821 N.ar      1 <1>        -0.3277
     14 C14         2.6737   -0.1143    0.4223 C.ar      1 <1>        -0.0130
     15 C15         3.7658    0.4781    1.0735 C.ar      1 <1>         0.0469
     16 C16         3.5240    1.5754    2.0420 C.ar      1 <1>         0.0307
     17 C17         4.4266    1.7912    3.0805 C.ar      1 <1>        -0.0435
     18 C18         4.1879    2.8197    3.9767 C.ar      1 <1>        -0.0845
     19 C19         3.0533    3.5985    3.8036 C.ar      1 <1>        -0.0680
     20 C20         2.1991    3.3278    2.7491 C.ar      1 <1>        -0.0324
     21 N21         2.4526    2.3466    1.9084 N.ar      1 <1>        -0.3749
     22 N22         5.0030    0.0814    0.8446 N.ar      1 <1>        -0.3517
     23 C23         5.2667   -0.9024   -0.0187 C.ar      1 <1>        -0.0084
     24 C24         6.5879   -1.3206   -0.2574 C.ar      1 <1>         0.0018
     25 C25         6.8285   -2.3275   -1.1438 C.ar      1 <1>         0.0819
     26 F26         8.0997   -2.7258   -1.3690 F         1 <1>        -0.2598
     27 C27         5.7815   -2.9541   -1.8220 C.ar      1 <1>        -0.0370
     28 C28         4.4905   -2.5751   -1.6161 C.ar      1 <1>        -0.0721
     29 C29         4.2056   -1.5413   -0.7095 C.ar      1 <1>        -0.0423
     30 C30         2.8816   -1.1280   -0.4664 C.ar      1 <1>        -0.0573
     31 H31         1.4500    0.0697    2.8353 H         1 <1>         0.0462
     32 H32        -0.2251    0.1050    2.2343 H         1 <1>         0.0534
     33 H33         0.7918   -1.3283    1.9517 H         1 <1>         0.0391
     34 H34         0.6299   -0.7987   -0.9474 H         1 <1>         0.2984
     35 H35        -0.9652   -1.4095   -2.7343 H         1 <1>         0.3362
     36 H36        -3.0872   -1.2423   -4.1362 H         1 <1>         0.3086
     37 H37        -2.5446    3.1146    0.6304 H         1 <1>         0.3023
     38 H38         5.3003    1.1650    3.1858 H         1 <1>         0.1394
     39 H39         4.8696    3.0110    4.7922 H         1 <1>         0.1366
     40 H40         2.8383    4.4080    4.4854 H         1 <1>         0.1288
     41 H41         1.3147    3.9321    2.6113 H         1 <1>         0.2112
     42 H42         7.4086   -0.8454    0.2592 H         1 <1>         0.1570
     43 H43         5.9986   -3.7497   -2.5194 H         1 <1>         0.1442
     44 H44         3.6892   -3.0676   -2.1469 H         1 <1>         0.1415
     45 H45         2.0525   -1.5985   -0.9738 H         1 <1>         0.1463
@<TRIPOS>BOND
     1    1    2 1
     2    1   31 1
     3    1   32 1
     4    1   33 1
     5    2    3 1
     6    2    4 1
     7    2   14 1
     8    4    5 1
     9    4   34 1
    10    5   13 ar
    11    5    6 ar
    12    6   10 ar
    13    6    7 1
    14    7    8 1
    15    7   35 1
    16    8    9 2
    17    8   36 1
    18    9   10 1
    19   10   11 ar
    20   11   12 ar
    21   12   13 ar
    22   12   37 1
    23   14   30 ar
    24   14   15 ar
    25   15   16 1
    26   15   22 ar
    27   16   21 ar
    28   16   17 ar
    29   17   18 ar
    30   17   38 1
    31   18   19 ar
    32   18   39 1
    33   19   20 ar
    34   19   40 1
    35   20   21 ar
    36   20   41 1
    37   22   23 ar
    38   23   29 ar
    39   23   24 ar
    40   24   25 ar
    41   24   42 1
    42   25   26 1
    43   25   27 ar
    44   27   28 ar
    45   27   43 1
    46   28   29 ar
    47   28   44 1
    48   29   30 ar
    49   30   45 1
@<TRIPOS>Similarity
1.0390
@<TRIPOS>ShapeSim
0.7888
@<TRIPOS>PharmSim
0.2502
# END
# Name:		C1=CC2=C(C(=C(C=C2Br)Br)O)N=C1
# Created and modified by SHAFTS on Thu Mar 11 05:28:35 2021

# 

@<TRIPOS>MOLECULE
C1=CC2=C(C(=C(C=C2Br)Br)O)N=C1
   17    18     0
SMALL
USER_CHARGE


@<TRIPOS>ATOM
      1 O1          6.8742   -0.6689   -0.3631 O.3       1 <1>        -0.5051
      2 C2          5.6293   -1.2114   -0.4142 C.ar      1 <1>         0.0128
      3 C3          4.5522   -0.5796    0.2404 C.ar      1 <1>         0.0364
      4 N4          4.7300    0.5575    0.9194 N.ar      1 <1>        -0.3745
      5 C5          3.7326    1.1500    1.5297 C.ar      1 <1>        -0.0436
      6 C6          2.4418    0.6265    1.5017 C.ar      1 <1>        -0.0796
      7 C7          2.1910   -0.5333    0.8255 C.ar      1 <1>        -0.0832
      8 C8          3.2647   -1.1665    0.1713 C.ar      1 <1>        -0.0441
      9 C9          3.0810   -2.3618   -0.5434 C.ar      1 <1>        -0.0536
     10 Br10        1.3662   -3.1528   -0.6422 Br        1 <1>        -0.1679
     11 C11         4.1410   -2.9498   -1.1655 C.ar      1 <1>        -0.0794
     12 C12         5.4102   -2.3787   -1.1102 C.ar      1 <1>        -0.0066
     13 Br13        6.8543   -3.2270   -1.9883 Br        1 <1>        -0.1565
     14 H14         3.9164    2.0676    2.0687 H         1 <1>         0.1820
     15 H15         1.6401    1.1372    2.0147 H         1 <1>         0.1126
     16 H16         1.1965   -0.9532    0.7938 H         1 <1>         0.1260
     17 H17         3.9940   -3.8690   -1.7133 H         1 <1>         0.1442
@<TRIPOS>BOND
     1    1    2 1
     2    2   12 ar
     3    2    3 ar
     4    3    8 ar
     5    3    4 ar
     6    4    5 ar
     7    5    6 ar
     8    5   14 1
     9    6    7 ar
    10    6   15 1
    11    7    8 ar
    12    7   16 1
    13    8    9 ar
    14    9   10 1
    15    9   11 ar
    16   11   12 ar
    17   11   17 1
    18   12   13 1
@<TRIPOS>Similarity
1.0373
@<TRIPOS>ShapeSim
0.6593
@<TRIPOS>PharmSim
0.3780
# END
# Name:		C1=CC=C(C=C1)N2C3=C(C=N2)C4=C(C5=CC=CN53)C(=O)NC4=O
# Created and modified by SHAFTS on Thu Mar 11 05:28:35 2021

# 

@<TRIPOS>MOLECULE
C1=CC=C(C=C1)N2C3=C(C=N2)C4=C(C5=CC=CN53)C(=O)NC4=O
   33    37     0
SMALL
USER_CHARGE


@<TRIPOS>ATOM
      1 O1          4.9633   -2.2566    1.2894 O.2       1 <1>        -0.4141
      2 C2          4.4026   -1.1795    1.2626 C.2       1 <1>         0.1757
      3 N3          4.8497   -0.0454    1.8341 N.am      1 <1>        -0.2116
      4 C4          3.9901    0.9675    1.6160 C.2       1 <1>         0.1699
      5 O5          4.1247    2.1094    2.0083 O.2       1 <1>        -0.4207
      6 C6          2.8599    0.4588    0.8216 C.2       1 <1>         0.0955
      7 C7          3.1209   -0.8918    0.5935 C.2       1 <1>         0.1019
      8 C8          2.1681   -1.6797   -0.1768 C.2       1 <1>         0.0036
      9 C9          2.1558   -3.0102   -0.5567 C.2       1 <1>        -0.0665
     10 C10         0.9851   -3.2176   -1.2901 C.2       1 <1>        -0.0816
     11 C11         0.3138   -2.0420   -1.3477 C.2       1 <1>        -0.0435
     12 N12         1.0219   -1.0918   -0.6732 N.pl3     1 <1>        -0.3025
     13 C13         0.7563    0.2437   -0.4528 C.2       1 <1>         0.0717
     14 C14         1.6362    1.0433    0.2744 C.2       1 <1>         0.0542
     15 C15         1.0818    2.3419    0.3189 C.2       1 <1>         0.0351
     16 N16        -0.0480    2.3288   -0.3323 N.2       1 <1>        -0.2966
     17 N17        -0.2817    1.0412   -0.8282 N.pl3     1 <1>        -0.2502
     18 C18        -1.3948    0.6405   -1.5792 C.ar      1 <1>        -0.0005
     19 C19        -1.8193    1.4064   -2.6567 C.ar      1 <1>        -0.0486
     20 C20        -2.9165    1.0085   -3.3953 C.ar      1 <1>        -0.0831
     21 C21        -3.5920   -0.1514   -3.0627 C.ar      1 <1>        -0.0930
     22 C22        -3.1718   -0.9161   -1.9899 C.ar      1 <1>        -0.0897
     23 C23        -2.0719   -0.5264   -1.2510 C.ar      1 <1>        -0.0585
     24 H24         5.6770    0.0313    2.3345 H         1 <1>         0.3671
     25 H25         2.9096   -3.7494   -0.3292 H         1 <1>         0.1456
     26 H26         0.6702   -4.1509   -1.7332 H         1 <1>         0.1410
     27 H27        -0.6302   -1.8830   -1.8477 H         1 <1>         0.1857
     28 H28         1.5191    3.1994    0.8086 H         1 <1>         0.2553
     29 H29        -1.2924    2.3125   -2.9168 H         1 <1>         0.1471
     30 H30        -3.2474    1.6041   -4.2334 H         1 <1>         0.1350
     31 H31        -4.4496   -0.4604   -3.6418 H         1 <1>         0.1337
     32 H32        -3.7019   -1.8210   -1.7321 H         1 <1>         0.1332
     33 H33        -1.7444   -1.1240   -0.4131 H         1 <1>         0.1293
@<TRIPOS>BOND
     1    1    2 2
     2    2    7 1
     3    2    3 am
     4    3    4 am
     5    3   24 1
     6    4    5 2
     7    4    6 1
     8    6   14 1
     9    6    7 2
    10    7    8 1
    11    8   12 1
    12    8    9 2
    13    9   10 1
    14    9   25 1
    15   10   11 2
    16   10   26 1
    17   11   12 1
    18   11   27 1
    19   12   13 1
    20   13   17 1
    21   13   14 2
    22   14   15 1
    23   15   16 2
    24   15   28 1
    25   16   17 1
    26   17   18 1
    27   18   23 ar
    28   18   19 ar
    29   19   20 ar
    30   19   29 1
    31   20   21 ar
    32   20   30 1
    33   21   22 ar
    34   21   31 1
    35   22   23 ar
    36   22   32 1
    37   23   33 1
@<TRIPOS>Similarity
1.0362
@<TRIPOS>ShapeSim
0.6739
@<TRIPOS>PharmSim
0.3623
# END
# Name:		CN1C=NC=C1[C@@](C2=CC=C(C=C2)Cl)(C3=CC4=C(C=C3)N(C(=O)C=C4C5=CC(=CC=C5)Cl)C)N
# Created and modified by SHAFTS on Thu Mar 11 05:28:35 2021

# 

@<TRIPOS>MOLECULE
CN1C=NC=C1[C@@](C2=CC=C(C=C2)Cl)(C3=CC4=C(C=C3)N(C(=O)C=C4C5=CC(=CC=C5)Cl)C)N
   57    61     0
SMALL
USER_CHARGE


@<TRIPOS>ATOM
      1 C1         -0.6768   -3.4553    2.0318 C.3       1 <1>        -0.0038
      2 N2         -1.9867   -2.9409    1.6244 N.pl3     1 <1>        -0.3624
      3 C3         -3.1618   -3.1515    2.2556 C.2       1 <1>         0.0138
      4 N4         -4.1060   -2.5356    1.5983 N.2       1 <1>        -0.3795
      5 C5         -3.5729   -1.9159    0.5349 C.2       1 <1>        -0.0301
      6 C6         -2.2470   -2.1521    0.5364 C.2       1 <1>        -0.0595
      7 C7         -1.2443   -1.6525   -0.4714 C.3       1 <1>        -0.0680
      8 N8         -0.5928   -2.7967   -1.1227 N.4       1 <1>         0.4512
      9 H9         -1.2962   -3.4280   -1.4760 H         1 <1>         0.1608
     10 H10        -0.0213   -2.4683   -1.8866 H         1 <1>         0.1608
     11 H11        -0.0133   -3.2798   -0.4527 H         1 <1>         0.1531
     12 C12        -1.9489   -0.8179   -1.5097 C.ar      1 <1>        -0.0901
     13 C13        -2.3105    0.4846   -1.2202 C.ar      1 <1>        -0.0747
     14 C14        -2.9568    1.2506   -2.1720 C.ar      1 <1>        -0.0556
     15 C15        -3.2417    0.7135   -3.4148 C.ar      1 <1>         0.0018
     16 Cl16       -4.0528    1.6751   -4.6111 Cl        1 <1>        -0.1204
     17 C17        -2.8795   -0.5901   -3.7040 C.ar      1 <1>        -0.0637
     18 C18        -2.2283   -1.3532   -2.7533 C.ar      1 <1>        -0.0867
     19 C19        -0.2054   -0.8135    0.2270 C.ar      1 <1>        -0.0886
     20 C20        -0.5774    0.0077    1.2820 C.ar      1 <1>        -0.0738
     21 C21         0.3583    0.7824    1.9334 C.ar      1 <1>        -0.0394
     22 C22         1.6894    0.7442    1.5330 C.ar      1 <1>        -0.0061
     23 C23         2.0668   -0.0877    0.4641 C.ar      1 <1>        -0.0202
     24 C24         1.1084   -0.8706   -0.1819 C.ar      1 <1>        -0.0716
     25 C25         3.4790   -0.1184    0.0507 C.2       1 <1>        -0.0302
     26 C26         3.9234   -0.9779   -1.0690 C.ar      1 <1>        -0.0612
     27 C27         3.4721   -0.7283   -2.3655 C.ar      1 <1>        -0.0841
     28 C28         3.8901   -1.5326   -3.4058 C.ar      1 <1>        -0.0886
     29 C29         4.7549   -2.5851   -3.1660 C.ar      1 <1>        -0.0697
     30 C30         5.2069   -2.8388   -1.8817 C.ar      1 <1>        -0.0070
     31 Cl31        6.2923   -4.1621   -1.5905 Cl        1 <1>        -0.1321
     32 C32         4.8001   -2.0379   -0.8333 C.ar      1 <1>        -0.0575
     33 C33         4.3713    0.6691    0.7284 C.2       1 <1>         0.0385
     34 C34         3.9314    1.4798    1.7902 C.2       1 <1>         0.1286
     35 O35         4.7412    2.1738    2.3812 O.2       1 <1>        -0.4665
     36 N36         2.6430    1.5111    2.1710 N.am      1 <1>        -0.3008
     37 C37         2.2435    2.3750    3.2847 C.3       1 <1>         0.0055
     38 H38        -0.1641   -2.7065    2.6356 H         1 <1>         0.1194
     39 H39        -0.8097   -4.3651    2.6170 H         1 <1>         0.1266
     40 H40        -0.0819   -3.6768    1.1457 H         1 <1>         0.0905
     41 H41        -3.2979   -3.7339    3.1549 H         1 <1>         0.2879
     42 H42        -4.1117   -1.3272   -0.1927 H         1 <1>         0.2098
     43 H43        -2.0883    0.9036   -0.2499 H         1 <1>         0.1448
     44 H44        -3.2395    2.2680   -1.9456 H         1 <1>         0.1507
     45 H45        -3.1020   -1.0100   -4.6738 H         1 <1>         0.1485
     46 H46        -1.9453   -2.3707   -2.9790 H         1 <1>         0.1245
     47 H47        -1.6104    0.0403    1.5955 H         1 <1>         0.1491
     48 H48         0.0579    1.4183    2.7530 H         1 <1>         0.1485
     49 H49         1.3941   -1.5112   -1.0031 H         1 <1>         0.1360
     50 H50         2.7964    0.0929   -2.5545 H         1 <1>         0.1284
     51 H51         3.5409   -1.3402   -4.4094 H         1 <1>         0.1341
     52 H52         5.0789   -3.2120   -3.9837 H         1 <1>         0.1379
     53 H53         5.1529   -2.2361    0.1679 H         1 <1>         0.1426
     54 H54         5.4141    0.6672    0.4475 H         1 <1>         0.1762
     55 H55         3.1172    2.9031    3.6666 H         1 <1>         0.1218
     56 H56         1.5053    3.0978    2.9371 H         1 <1>         0.1002
     57 H57         1.8105    1.7670    4.0790 H         1 <1>         0.1002
@<TRIPOS>BOND
     1    1    2 1
     2    1   38 1
     3    1   39 1
     4    1   40 1
     5    2    6 1
     6    2    3 1
     7    3    4 2
     8    3   41 1
     9    4    5 1
    10    5    6 2
    11    5   42 1
    12    6    7 1
    13    7    8 1
    14    7   12 1
    15    7   19 1
    16    8    9 1
    17    8   10 1
    18    8   11 1
    19   12   18 ar
    20   12   13 ar
    21   13   14 ar
    22   13   43 1
    23   14   15 ar
    24   14   44 1
    25   15   16 1
    26   15   17 ar
    27   17   18 ar
    28   17   45 1
    29   18   46 1
    30   19   24 ar
    31   19   20 ar
    32   20   21 ar
    33   20   47 1
    34   21   22 ar
    35   21   48 1
    36   22   36 1
    37   22   23 ar
    38   23   24 ar
    39   23   25 1
    40   24   49 1
    41   25   26 1
    42   25   33 2
    43   26   32 ar
    44   26   27 ar
    45   27   28 ar
    46   27   50 1
    47   28   29 ar
    48   28   51 1
    49   29   30 ar
    50   29   52 1
    51   30   31 1
    52   30   32 ar
    53   32   53 1
    54   33   34 1
    55   33   54 1
    56   34   35 2
    57   34   36 am
    58   36   37 1
    59   37   55 1
    60   37   56 1
    61   37   57 1
@<TRIPOS>Similarity
1.0351
@<TRIPOS>ShapeSim
0.7116
@<TRIPOS>PharmSim
0.3235
# END
# Name:		O=C1CC2=C(NC3=C2C=C(C#N)C=C3)C4=C(C=CC=C4)N1
# Created and modified by SHAFTS on Thu Mar 11 05:28:35 2021

# 

@<TRIPOS>MOLECULE
O=C1CC2=C(NC3=C2C=C(C#N)C=C3)C4=C(C=CC=C4)N1
   32    35     0
SMALL
USER_CHARGE


@<TRIPOS>ATOM
      1 N1         -2.8348    2.9068    4.5749 N.1       1 <1>        -0.3827
      2 C2         -2.2564    2.3316    3.7844 C.1       1 <1>         0.0524
      3 C3         -1.5272    1.6065    2.7878 C.ar      1 <1>         0.0582
      4 C4         -2.2058    1.1147    1.6676 C.ar      1 <1>        -0.0465
      5 C5         -1.5714    0.4117    0.6765 C.ar      1 <1>        -0.0538
      6 C6         -0.2004    0.1968    0.8195 C.ar      1 <1>        -0.0473
      7 N7          0.7033   -0.4509    0.0297 N.pl3     1 <1>        -0.3536
      8 C8          1.9548   -0.3973    0.6126 C.2       1 <1>        -0.0403
      9 C9          1.8825    0.2975    1.7743 C.2       1 <1>        -0.0426
     10 C10         3.0541    0.5927    2.6777 C.3       1 <1>         0.0812
     11 C11         4.0758    1.3510    1.8668 C.2       1 <1>         0.1019
     12 O12         4.3914    2.4700    2.2124 O.2       1 <1>        -0.4782
     13 N13         4.6404    0.8241    0.7816 N.am      1 <1>        -0.3015
     14 C14         4.4408   -0.4243    0.2207 C.ar      1 <1>        -0.0256
     15 C15         5.5667   -1.1108   -0.2382 C.ar      1 <1>        -0.0583
     16 C16         5.4411   -2.3354   -0.8578 C.ar      1 <1>        -0.0910
     17 C17         4.1916   -2.9047   -1.0326 C.ar      1 <1>        -0.0945
     18 C18         3.0702   -2.2552   -0.5647 C.ar      1 <1>        -0.0713
     19 C19         3.1856   -1.0163    0.0753 C.ar      1 <1>        -0.0155
     20 C20         0.5014    0.6927    1.9520 C.ar      1 <1>        -0.0415
     21 C21        -0.1523    1.4116    2.9543 C.ar      1 <1>        -0.0318
     22 H22        -3.2671    1.2950    1.5809 H         1 <1>         0.1426
     23 H23        -2.1116    0.0385   -0.1810 H         1 <1>         0.1389
     24 H24         0.4982   -0.8840   -0.8136 H         1 <1>         0.3356
     25 H25         2.7269    1.2004    3.5214 H         1 <1>         0.1367
     26 H26         3.4871   -0.3401    3.0386 H         1 <1>         0.1296
     27 H27         5.2778    1.3932    0.3224 H         1 <1>         0.3252
     28 H28         6.5470   -0.6773   -0.1064 H         1 <1>         0.1366
     29 H29         6.3215   -2.8534   -1.2083 H         1 <1>         0.1293
     30 H30         4.0959   -3.8559   -1.5350 H         1 <1>         0.1203
     31 H31         2.0967   -2.7049   -0.6926 H         1 <1>         0.1335
     32 H32         0.3757    1.7950    3.8149 H         1 <1>         0.1640
@<TRIPOS>BOND
     1    1    2 3
     2    2    3 1
     3    3   21 ar
     4    3    4 ar
     5    4    5 ar
     6    4   22 1
     7    5    6 ar
     8    5   23 1
     9    6   20 ar
    10    6    7 1
    11    7    8 1
    12    7   24 1
    13    8   19 1
    14    8    9 2
    15    9   10 1
    16    9   20 1
    17   10   11 1
    18   10   25 1
    19   10   26 1
    20   11   12 2
    21   11   13 am
    22   13   14 1
    23   13   27 1
    24   14   19 ar
    25   14   15 ar
    26   15   16 ar
    27   15   28 1
    28   16   17 ar
    29   16   29 1
    30   17   18 ar
    31   17   30 1
    32   18   19 ar
    33   18   31 1
    34   20   21 ar
    35   21   32 1
@<TRIPOS>Similarity
1.0341
@<TRIPOS>ShapeSim
0.6680
@<TRIPOS>PharmSim
0.3661
# END
# Name:		CC1=C(C(C(=C(N1)C)C(=O)OCCN(C)CC2=CC=CC=C2)C3=CC(=CC=C3)[N+](=O)[O-])C(=O)OC
# Created and modified by SHAFTS on Thu Mar 11 05:28:35 2021

# 

@<TRIPOS>MOLECULE
CC1=C(C(C(=C(N1)C)C(=O)OCCN(C)CC2=CC=CC=C2)C3=CC(=CC=C3)[N+](=O)[O-])C(=O)OC
   65    67     0
SMALL
USER_CHARGE


@<TRIPOS>ATOM
      1 C1          2.6183   -6.4730   -3.9613 C.3       1 <1>         0.0375
      2 O2          3.3941   -5.7522   -3.0019 O.3       1 <1>        -0.3524
      3 C3          3.4881   -4.4164   -3.1691 C.2       1 <1>         0.1783
      4 O4          2.9259   -3.8792   -4.1050 O.2       1 <1>        -0.4431
      5 C5          4.2402   -3.6409   -2.2565 C.2       1 <1>         0.0518
      6 C6          5.5812   -3.6327   -2.3494 C.2       1 <1>        -0.0469
      7 C7          6.2583   -4.4550   -3.4155 C.3       1 <1>        -0.0027
      8 N8          6.3388   -2.8866   -1.4884 N.pl3     1 <1>        -0.3495
      9 C9          5.7679   -1.8744   -0.7663 C.2       1 <1>        -0.0392
     10 C10         6.6443   -0.8193   -0.1420 C.3       1 <1>         0.0063
     11 C11         4.4347   -1.8097   -0.6066 C.2       1 <1>         0.0509
     12 C12         3.8782   -0.7451    0.1396 C.2       1 <1>         0.1669
     13 O13         4.5949    0.1456    0.5564 O.2       1 <1>        -0.4518
     14 O14         2.5523   -0.7169    0.3892 O.3       1 <1>        -0.3595
     15 C15         2.0750    0.3244    1.2436 C.3       1 <1>         0.0236
     16 C16         0.5772    0.1346    1.4911 C.3       1 <1>        -0.0642
     17 N17        -0.1561    0.3350    0.2342 N.4       1 <1>         0.4123
     18 H18         0.2205   -0.2751   -0.4758 H         1 <1>         0.1691
     19 C19        -0.0168    1.7324   -0.1967 C.3       1 <1>        -0.0879
     20 C20        -1.5772    0.0260    0.4418 C.3       1 <1>        -0.0822
     21 C21        -2.3045    0.0972   -0.8762 C.ar      1 <1>        -0.1317
     22 C22        -2.9304    1.2692   -1.2577 C.ar      1 <1>        -0.1093
     23 C23        -3.5976    1.3346   -2.4666 C.ar      1 <1>        -0.1002
     24 C24        -3.6384    0.2281   -3.2942 C.ar      1 <1>        -0.0958
     25 C25        -3.0117   -0.9436   -2.9131 C.ar      1 <1>        -0.0946
     26 C26        -2.3409   -1.0077   -1.7062 C.ar      1 <1>        -0.1036
     27 C27         3.5228   -2.8389   -1.2079 C.3       1 <1>         0.0403
     28 H28         2.6632   -2.3396   -1.6546 H         1 <1>         0.1158
     29 C29         3.0466   -3.7730   -0.1254 C.ar      1 <1>        -0.0613
     30 C30         3.9639   -4.4377    0.6666 C.ar      1 <1>        -0.0732
     31 C31         3.5269   -5.2946    1.6598 C.ar      1 <1>        -0.0722
     32 C32         2.1730   -5.4862    1.8610 C.ar      1 <1>        -0.0418
     33 C33         1.2555   -4.8205    1.0694 C.ar      1 <1>         0.0805
     34 N34        -0.1944   -5.0261    1.2845 N.pl3     1 <1>         0.0031
     35 O35        -0.5791   -5.8525    2.0923 O.2       1 <1>        -0.2330
     36 O36        -1.0029   -4.3688    0.6536 O.2       1 <1>        -0.2439
     37 C37         1.6923   -3.9606    0.0794 C.ar      1 <1>        -0.0370
     38 H38         1.5928   -6.1036   -3.9508 H         1 <1>         0.0926
     39 H39         3.0454   -6.3314   -4.9542 H         1 <1>         0.0998
     40 H40         2.6250   -7.5339   -3.7109 H         1 <1>         0.1288
     41 H41         6.4248   -3.8385   -4.2989 H         1 <1>         0.0860
     42 H42         7.2151   -4.8187   -3.0407 H         1 <1>         0.0788
     43 H43         5.6250   -5.3023   -3.6778 H         1 <1>         0.0788
     44 H44         7.2849   -3.0764   -1.3892 H         1 <1>         0.3397
     45 H45         7.6882   -1.0307   -0.3734 H         1 <1>         0.0697
     46 H46         6.3748    0.1590   -0.5399 H         1 <1>         0.0984
     47 H47         6.5038   -0.8232    0.9389 H         1 <1>         0.0912
     48 H48         2.6080    0.2877    2.1938 H         1 <1>         0.1299
     49 H49         2.2452    1.2907    0.7686 H         1 <1>         0.1154
     50 H50         0.3951   -0.8742    1.8613 H         1 <1>         0.1062
     51 H51         0.2364    0.8598    2.2302 H         1 <1>         0.1133
     52 H52        -0.3821    2.3933    0.5895 H         1 <1>         0.0821
     53 H53         1.0331    1.9487   -0.3944 H         1 <1>         0.0750
     54 H54        -0.5980    1.8923   -1.1049 H         1 <1>         0.0821
     55 H55        -1.6740   -0.9774    0.8564 H         1 <1>         0.1097
     56 H56        -2.0088    0.7486    1.1344 H         1 <1>         0.1097
     57 H57        -2.8985    2.1336   -0.6112 H         1 <1>         0.1227
     58 H58        -4.0872    2.2500   -2.7644 H         1 <1>         0.1216
     59 H59        -4.1603    0.2789   -4.2385 H         1 <1>         0.1300
     60 H60        -3.0439   -1.8082   -3.5596 H         1 <1>         0.1322
     61 H61        -1.8513   -1.9231   -1.4084 H         1 <1>         0.1333
     62 H62         5.0217   -4.2880    0.5094 H         1 <1>         0.1406
     63 H63         4.2437   -5.8146    2.2782 H         1 <1>         0.1436
     64 H64         1.8317   -6.1561    2.6363 H         1 <1>         0.1664
     65 H65         0.9755   -3.4406   -0.5391 H         1 <1>         0.1532
@<TRIPOS>BOND
     1    1    2 1
     2    1   38 1
     3    1   39 1
     4    1   40 1
     5    2    3 1
     6    3    4 2
     7    3    5 1
     8    5   27 1
     9    5    6 2
    10    6    7 1
    11    6    8 1
    12    7   41 1
    13    7   42 1
    14    7   43 1
    15    8    9 1
    16    8   44 1
    17    9   10 1
    18    9   11 2
    19   10   45 1
    20   10   46 1
    21   10   47 1
    22   11   12 1
    23   11   27 1
    24   12   13 2
    25   12   14 1
    26   14   15 1
    27   15   16 1
    28   15   48 1
    29   15   49 1
    30   16   17 1
    31   16   50 1
    32   16   51 1
    33   17   18 1
    34   17   19 1
    35   17   20 1
    36   19   52 1
    37   19   53 1
    38   19   54 1
    39   20   21 1
    40   20   55 1
    41   20   56 1
    42   21   26 ar
    43   21   22 ar
    44   22   23 ar
    45   22   57 1
    46   23   24 ar
    47   23   58 1
    48   24   25 ar
    49   24   59 1
    50   25   26 ar
    51   25   60 1
    52   26   61 1
    53   27   28 1
    54   27   29 1
    55   29   37 ar
    56   29   30 ar
    57   30   31 ar
    58   30   62 1
    59   31   32 ar
    60   31   63 1
    61   32   33 ar
    62   32   64 1
    63   33   34 1
    64   33   37 ar
    65   34   35 2
    66   34   36 2
    67   37   65 1
@<TRIPOS>Similarity
1.0315
@<TRIPOS>ShapeSim
0.6652
@<TRIPOS>PharmSim
0.3662
# END
# Name:		C1=CC(=CC=C1C=C2C(=O)N=C(S2)N)O
# Created and modified by SHAFTS on Thu Mar 11 05:28:35 2021

# 

@<TRIPOS>MOLECULE
C1=CC(=CC=C1C=C2C(=O)N=C(S2)N)O
   23    24     0
SMALL
USER_CHARGE


@<TRIPOS>ATOM
      1 N1          2.8305    3.8603    4.2016 N.2       1 <1>        -0.4117
      2 C2          2.8941    2.8688    3.3562 C.2       1 <1>         0.0497
      3 N3          3.9991    2.4598    2.6570 N.am      1 <1>        -0.2525
      4 C4          3.8850    1.4286    1.8369 C.2       1 <1>         0.1425
      5 O5          4.8225    1.0091    1.1839 O.2       1 <1>        -0.4421
      6 C6          2.5500    0.8255    1.7699 C.2       1 <1>         0.0860
      7 C7          2.1542   -0.2330    1.0193 C.2       1 <1>        -0.0307
      8 C8          3.1490   -1.0253    0.2846 C.ar      1 <1>        -0.0599
      9 C9          4.3744   -1.3439    0.8826 C.ar      1 <1>        -0.0734
     10 C10         5.3033   -2.0868    0.1892 C.ar      1 <1>        -0.0583
     11 C11         5.0267   -2.5200   -1.1022 C.ar      1 <1>        -0.0381
     12 O12         5.9464   -3.2523   -1.7816 O.3       1 <1>        -0.4385
     13 C13         3.8120   -2.2066   -1.7009 C.ar      1 <1>        -0.0666
     14 C14         2.8732   -1.4696   -1.0143 C.ar      1 <1>        -0.0831
     15 S15         1.5702    1.7849    2.8955 S.3       1 <1>        -0.0521
     16 H16         1.9939    4.0638    4.6484 H         1 <1>         0.2837
     17 H17         4.8479    2.9176    2.7611 H         1 <1>         0.3555
     18 H18         1.1075   -0.4932    0.9621 H         1 <1>         0.1908
     19 H19         4.5905   -1.0072    1.8857 H         1 <1>         0.1429
     20 H20         6.2488   -2.3330    0.6495 H         1 <1>         0.1268
     21 H21         5.8611   -4.2070   -1.6539 H         1 <1>         0.3544
     22 H22         3.6024   -2.5454   -2.7046 H         1 <1>         0.1225
     23 H23         1.9296   -1.2269   -1.4802 H         1 <1>         0.1323
@<TRIPOS>BOND
     1    1    2 2
     2    1   16 1
     3    2   15 1
     4    2    3 1
     5    3    4 am
     6    3   17 1
     7    4    5 2
     8    4    6 1
     9    6    7 2
    10    6   15 1
    11    7    8 1
    12    7   18 1
    13    8   14 ar
    14    8    9 ar
    15    9   10 ar
    16    9   19 1
    17   10   11 ar
    18   10   20 1
    19   11   12 1
    20   11   13 ar
    21   12   21 1
    22   13   14 ar
    23   13   22 1
    24   14   23 1
@<TRIPOS>Similarity
1.0312
@<TRIPOS>ShapeSim
0.6135
@<TRIPOS>PharmSim
0.4176
# END
# Name:		O=C(C(N1CCOCC1)=C2Cl)N(C3=CC=C(Cl)C(Cl)=C3)C2=O
# Created and modified by SHAFTS on Thu Mar 11 05:28:35 2021

# 

@<TRIPOS>MOLECULE
O=C(C(N1CCOCC1)=C2Cl)N(C3=CC=C(Cl)C(Cl)=C3)C2=O
   33    35     0
SMALL
USER_CHARGE


@<TRIPOS>ATOM
      1 O1          0.7322   -2.0486   -2.1200 O.2       1 <1>        -0.3995
      2 C2          0.9542   -1.1121   -1.3778 C.2       1 <1>         0.2126
      3 C3          2.1781   -0.9175   -0.5909 C.2       1 <1>         0.1835
      4 Cl4         3.5595   -1.9681   -0.5483 Cl        1 <1>        -0.0588
      5 C5          2.0220    0.2426    0.0965 C.2       1 <1>         0.1254
      6 N6          2.9277    0.8173    0.9651 N.pl3     1 <1>        -0.3845
      7 C7          4.2585    1.2404    0.5011 C.3       1 <1>        -0.0057
      8 C8          4.4922    2.6856    0.9557 C.3       1 <1>         0.0237
      9 O9          4.2495    2.7819    2.3613 O.3       1 <1>        -0.4539
     10 C10         2.9057    2.4811    2.7452 C.3       1 <1>         0.0228
     11 C11         2.5887    1.0307    2.3810 C.3       1 <1>        -0.0067
     12 C12         0.6824    0.7715   -0.2717 C.2       1 <1>         0.2279
     13 O13         0.1832    1.7973    0.1422 O.2       1 <1>        -0.3914
     14 N14         0.1217   -0.0821   -1.1474 N.am      1 <1>        -0.1826
     15 C15        -1.1452    0.0747   -1.7266 C.ar      1 <1>         0.0035
     16 C16        -1.9216    1.1813   -1.4109 C.ar      1 <1>        -0.0423
     17 C17        -3.1699    1.3342   -1.9826 C.ar      1 <1>        -0.0493
     18 C18        -3.6470    0.3857   -2.8693 C.ar      1 <1>         0.0227
     19 Cl19       -5.2162    0.5809   -3.5859 Cl        1 <1>        -0.1223
     20 C20        -2.8745   -0.7193   -3.1865 C.ar      1 <1>         0.0298
     21 Cl21       -3.4757   -1.9074   -4.3005 Cl        1 <1>        -0.1110
     22 C22        -1.6229   -0.8736   -2.6210 C.ar      1 <1>        -0.0207
     23 H23         5.0211    0.5919    0.9327 H         1 <1>         0.1093
     24 H24         4.3025    1.1860   -0.5866 H         1 <1>         0.1165
     25 H25         5.5222    2.9720    0.7437 H         1 <1>         0.1349
     26 H26         3.8118    3.3495    0.4225 H         1 <1>         0.0988
     27 H27         2.7944    2.6205    3.8206 H         1 <1>         0.1328
     28 H28         2.2195    3.1443    2.2185 H         1 <1>         0.0966
     29 H29         1.5281    0.8357    2.5395 H         1 <1>         0.1161
     30 H30         3.1827    0.3584    3.0003 H         1 <1>         0.1089
     31 H31        -1.5501    1.9221   -0.7185 H         1 <1>         0.1642
     32 H32        -3.7741    2.1950   -1.7367 H         1 <1>         0.1608
     33 H33        -1.0204   -1.7352   -2.8683 H         1 <1>         0.1679
@<TRIPOS>BOND
     1    1    2 2
     2    2   14 am
     3    2    3 1
     4    3    4 1
     5    3    5 2
     6    5    6 1
     7    5   12 1
     8    6   11 1
     9    6    7 1
    10    7    8 1
    11    7   23 1
    12    7   24 1
    13    8    9 1
    14    8   25 1
    15    8   26 1
    16    9   10 1
    17   10   11 1
    18   10   27 1
    19   10   28 1
    20   11   29 1
    21   11   30 1
    22   12   13 2
    23   12   14 am
    24   14   15 1
    25   15   22 ar
    26   15   16 ar
    27   16   17 ar
    28   16   31 1
    29   17   18 ar
    30   17   32 1
    31   18   19 1
    32   18   20 ar
    33   20   21 1
    34   20   22 ar
    35   22   33 1
@<TRIPOS>Similarity
1.0291
@<TRIPOS>ShapeSim
0.6827
@<TRIPOS>PharmSim
0.3464
# END
# Name:		O=C(NC1=CC=CC=C1)C2=CC([N+]([O-])=O)=CC=C2Cl
# Created and modified by SHAFTS on Thu Mar 11 05:28:35 2021

# 

@<TRIPOS>MOLECULE
O=C(NC1=CC=CC=C1)C2=CC([N+]([O-])=O)=CC=C2Cl
   28    29     0
SMALL
USER_CHARGE


@<TRIPOS>ATOM
      1 O1         -0.1155   -1.5586   -1.3486 O.2       1 <1>        -0.4462
      2 C2          0.1730   -0.4732   -0.8831 C.2       1 <1>         0.1365
      3 N3         -0.6665    0.5701   -1.0359 N.am      1 <1>        -0.3052
      4 C4         -1.8218    0.4303   -1.8115 C.ar      1 <1>        -0.0547
      5 C5         -2.2802    1.4959   -2.5754 C.ar      1 <1>        -0.0733
      6 C6         -3.4215    1.3545   -3.3402 C.ar      1 <1>        -0.0990
      7 C7         -4.1075    0.1539   -3.3460 C.ar      1 <1>        -0.1041
      8 C8         -3.6539   -0.9088   -2.5862 C.ar      1 <1>        -0.0955
      9 C9         -2.5099   -0.7761   -1.8239 C.ar      1 <1>        -0.0674
     10 C10         1.4408   -0.2992   -0.1448 C.ar      1 <1>         0.0780
     11 C11         1.7725    0.9443    0.3960 C.ar      1 <1>        -0.0037
     12 C12         2.9578    1.0999    1.0841 C.ar      1 <1>         0.0927
     13 N13         3.3102    2.4178    1.6583 N.pl3     1 <1>         0.0123
     14 O14         2.5541    3.3631    1.5229 O.2       1 <1>        -0.2315
     15 O15         4.3564    2.5571    2.2663 O.2       1 <1>        -0.2260
     16 C16         3.8179    0.0272    1.2396 C.ar      1 <1>        -0.0271
     17 C17         3.4971   -1.2081    0.7065 C.ar      1 <1>        -0.0307
     18 C18         2.3109   -1.3802    0.0204 C.ar      1 <1>         0.0551
     19 Cl19        1.9089   -2.9313   -0.6477 Cl        1 <1>        -0.0707
     20 H20        -0.4693    1.4180   -0.6078 H         1 <1>         0.3225
     21 H21        -1.7452    2.4339   -2.5711 H         1 <1>         0.1259
     22 H22        -3.7788    2.1828   -3.9343 H         1 <1>         0.1239
     23 H23        -4.9997    0.0459   -3.9450 H         1 <1>         0.1183
     24 H24        -4.1922   -1.8451   -2.5926 H         1 <1>         0.1248
     25 H25        -2.1561   -1.6063   -1.2307 H         1 <1>         0.1386
     26 H26         1.1026    1.7829    0.2754 H         1 <1>         0.1784
     27 H27         4.7446    0.1553    1.7795 H         1 <1>         0.1819
     28 H28         4.1733   -2.0410    0.8312 H         1 <1>         0.1662
@<TRIPOS>BOND
     1    1    2 2
     2    2    3 am
     3    2   10 1
     4    3    4 1
     5    3   20 1
     6    4    9 ar
     7    4    5 ar
     8    5    6 ar
     9    5   21 1
    10    6    7 ar
    11    6   22 1
    12    7    8 ar
    13    7   23 1
    14    8    9 ar
    15    8   24 1
    16    9   25 1
    17   10   18 ar
    18   10   11 ar
    19   11   12 ar
    20   11   26 1
    21   12   13 1
    22   12   16 ar
    23   13   14 2
    24   13   15 2
    25   16   17 ar
    26   16   27 1
    27   17   18 ar
    28   17   28 1
    29   18   19 1
@<TRIPOS>Similarity
1.0273
@<TRIPOS>ShapeSim
0.7015
@<TRIPOS>PharmSim
0.3258
# END
# Name:		CC1=CC=C(C[NH+]2CCNC([C@H]2CC(OCC)=O)=O)C=C1
# Created and modified by SHAFTS on Thu Mar 11 05:28:35 2021

# 

@<TRIPOS>MOLECULE
CC1=CC=C(C[NH+]2CCNC([C@H]2CC(OCC)=O)=O)C=C1
   43    44     0
SMALL
USER_CHARGE


@<TRIPOS>ATOM
      1 C1         -1.5195    5.7652    2.0585 C.3       1 <1>        -0.0322
      2 C2         -0.6786    4.7054    1.3438 C.3       1 <1>         0.0232
      3 O3         -0.7877    3.4425    2.0519 O.3       1 <1>        -0.3647
      4 C4         -0.1045    2.4017    1.5502 C.2       1 <1>         0.1552
      5 O5          0.5626    2.5413    0.5526 O.2       1 <1>        -0.4505
      6 C6         -0.1696    1.0590    2.2315 C.3       1 <1>         0.0772
      7 C7          0.5926    0.0268    1.3981 C.3       1 <1>        -0.0320
      8 H8          0.4918   -0.9559    1.8588 H         1 <1>         0.1023
      9 C9          2.0457    0.4050    1.3426 C.2       1 <1>         0.0648
     10 O10         2.5846    0.7915    2.3581 O.2       1 <1>        -0.4946
     11 N11         2.7697    0.3328    0.2209 N.am      1 <1>        -0.3459
     12 C12         2.2083   -0.0851   -1.0605 C.3       1 <1>        -0.0423
     13 C13         0.8888   -0.8264   -0.8381 C.3       1 <1>        -0.1523
     14 N14         0.0339   -0.0117    0.0399 N.3       1 <1>         0.3666
     15 C15        -1.3435   -0.5221    0.0548 C.3       1 <1>        -0.1523
     16 C16        -2.0391   -0.1281   -1.2227 C.ar      1 <1>        -0.1215
     17 C17        -2.7239    1.0704   -1.2954 C.ar      1 <1>        -0.0964
     18 C18        -3.3619    1.4320   -2.4673 C.ar      1 <1>        -0.1026
     19 C19        -3.3147    0.5951   -3.5665 C.ar      1 <1>        -0.1190
     20 C20        -4.0107    0.9889   -4.8438 C.3       1 <1>        -0.0438
     21 C21        -2.6287   -0.6029   -3.4942 C.ar      1 <1>        -0.1058
     22 C22        -1.9875   -0.9625   -2.3236 C.ar      1 <1>        -0.1005
     23 H23        -1.1577    5.8885    3.0793 H         1 <1>         0.0517
     24 H24        -1.4376    6.7133    1.5269 H         1 <1>         0.0589
     25 H25        -2.5624    5.4487    2.0785 H         1 <1>         0.0517
     26 H26        -1.0406    4.5821    0.3231 H         1 <1>         0.1025
     27 H27         0.3642    5.0219    1.3238 H         1 <1>         0.1025
     28 H28         0.2816    1.1315    3.2212 H         1 <1>         0.1296
     29 H29        -1.2105    0.7508    2.3284 H         1 <1>         0.1224
     30 H30         3.7096    0.5691    0.2600 H         1 <1>         0.2999
     31 H31         2.0296    0.7932   -1.6808 H         1 <1>         0.1068
     32 H32         2.9132   -0.7453   -1.5661 H         1 <1>         0.1068
     33 H33         0.3897   -0.9797   -1.7950 H         1 <1>         0.0723
     34 H34         1.0854   -1.7897   -0.3674 H         1 <1>         0.0364
     35 H35        -1.3275   -1.6087    0.1395 H         1 <1>         0.0436
     36 H36        -1.8785   -0.0993    0.9051 H         1 <1>         0.0723
     37 H37        -2.7608    1.7243   -0.4367 H         1 <1>         0.1213
     38 H38        -3.8976    2.3680   -2.5239 H         1 <1>         0.1143
     39 H39        -3.3230    1.5541   -5.4729 H         1 <1>         0.0549
     40 H40        -4.3338    0.0924   -5.3728 H         1 <1>         0.0549
     41 H41        -4.8787    1.6052   -4.6095 H         1 <1>         0.0549
     42 H42        -2.5914   -1.2566   -4.3531 H         1 <1>         0.1134
     43 H43        -1.4515   -1.8985   -2.2670 H         1 <1>         0.1162
@<TRIPOS>BOND
     1    1    2 1
     2    1   23 1
     3    1   24 1
     4    1   25 1
     5    2    3 1
     6    2   26 1
     7    2   27 1
     8    3    4 1
     9    4    5 2
    10    4    6 1
    11    6    7 1
    12    6   28 1
    13    6   29 1
    14    7    8 1
    15    7   14 1
    16    7    9 1
    17    9   10 2
    18    9   11 am
    19   11   12 1
    20   11   30 1
    21   12   13 1
    22   12   31 1
    23   12   32 1
    24   13   14 1
    25   13   33 1
    26   13   34 1
    27   14   15 1
    28   15   16 1
    29   15   35 1
    30   15   36 1
    31   16   22 ar
    32   16   17 ar
    33   17   18 ar
    34   17   37 1
    35   18   19 ar
    36   18   38 1
    37   19   20 1
    38   19   21 ar
    39   20   39 1
    40   20   40 1
    41   20   41 1
    42   21   22 ar
    43   21   42 1
    44   22   43 1
@<TRIPOS>Similarity
1.0268
@<TRIPOS>ShapeSim
0.6466
@<TRIPOS>PharmSim
0.3802
# END
# Name:		CC1=CC2=C(C3=CC(=C(C=C13)OC)OC)C(=O)NC2=O
# Created and modified by SHAFTS on Thu Mar 11 05:28:35 2021

# 

@<TRIPOS>MOLECULE
CC1=CC2=C(C3=CC(=C(C=C13)OC)OC)C(=O)NC2=O
   33    35     0
SMALL
USER_CHARGE


@<TRIPOS>ATOM
      1 C1          5.9727    2.5543    1.8887 C.3       1 <1>         0.0292
      2 O2          4.5719    2.4055    2.1294 O.3       1 <1>        -0.4003
      3 C3          3.9643    1.3202    1.5833 C.ar      1 <1>         0.0491
      4 C4          2.5875    1.1231    1.7804 C.ar      1 <1>         0.0475
      5 O5          1.8794    2.0203    2.5151 O.3       1 <1>        -0.4005
      6 C6          0.4830    1.7656    2.6803 C.3       1 <1>         0.0292
      7 C7          1.9528    0.0419    1.2428 C.ar      1 <1>        -0.0380
      8 C8          2.6815   -0.8887    0.4823 C.ar      1 <1>        -0.0597
      9 C9          2.0518   -2.0096   -0.0825 C.ar      1 <1>        -0.0822
     10 C10         0.5748   -2.2234    0.1269 C.3       1 <1>        -0.0304
     11 C11         2.7687   -2.9063   -0.8198 C.ar      1 <1>        -0.0523
     12 C12         4.1372   -2.7292   -1.0271 C.ar      1 <1>         0.0616
     13 C13         4.8000   -1.6229   -0.4789 C.ar      1 <1>         0.0692
     14 C14         6.2111   -1.7469   -0.8874 C.2       1 <1>         0.1566
     15 O15         7.1022   -0.9719   -0.6023 O.2       1 <1>        -0.4299
     16 N16         6.3475   -2.8617   -1.6277 N.am      1 <1>        -0.2192
     17 C17         5.1695   -3.4982   -1.7570 C.2       1 <1>         0.1550
     18 O18         4.9846   -4.5307   -2.3688 O.2       1 <1>        -0.4298
     19 C19         4.0752   -0.6881    0.2839 C.ar      1 <1>        -0.0359
     20 C20         4.6976    0.4367    0.8448 C.ar      1 <1>        -0.0304
     21 H21         6.3316    3.4591    2.3794 H         1 <1>         0.1277
     22 H22         6.5037    1.6898    2.2874 H         1 <1>         0.0916
     23 H23         6.1513    2.6274    0.8159 H         1 <1>         0.0916
     24 H24         0.0002    1.7409    1.7033 H         1 <1>         0.0916
     25 H25         0.3452    0.8057    3.1781 H         1 <1>         0.0916
     26 H26         0.0386    2.5558    3.2854 H         1 <1>         0.1277
     27 H27         0.8937   -0.0987    1.4014 H         1 <1>         0.1345
     28 H28         0.0198   -1.7344   -0.6738 H         1 <1>         0.0648
     29 H29         0.3576   -3.2915    0.1198 H         1 <1>         0.0648
     30 H30         0.2785   -1.7987    1.0861 H         1 <1>         0.0577
     31 H31         2.2708   -3.7638   -1.2480 H         1 <1>         0.1456
     32 H32         7.1827   -3.1657   -2.0161 H         1 <1>         0.3583
     33 H33         5.7546    0.6012    0.6965 H         1 <1>         0.1439
@<TRIPOS>BOND
     1    1    2 1
     2    1   21 1
     3    1   22 1
     4    1   23 1
     5    2    3 1
     6    3   20 ar
     7    3    4 ar
     8    4    5 1
     9    4    7 ar
    10    5    6 1
    11    6   24 1
    12    6   25 1
    13    6   26 1
    14    7    8 ar
    15    7   27 1
    16    8   19 ar
    17    8    9 ar
    18    9   10 1
    19    9   11 ar
    20   10   28 1
    21   10   29 1
    22   10   30 1
    23   11   12 ar
    24   11   31 1
    25   12   17 1
    26   12   13 ar
    27   13   14 1
    28   13   19 ar
    29   14   15 2
    30   14   16 am
    31   16   17 am
    32   16   32 1
    33   17   18 2
    34   19   20 ar
    35   20   33 1
@<TRIPOS>Similarity
1.0253
@<TRIPOS>ShapeSim
0.6641
@<TRIPOS>PharmSim
0.3613
# END
# Name:		O=C1C[C@@H](C2=CC=CC=C2)OC3=CC(O)=CC(OC)=C13
# Created and modified by SHAFTS on Thu Mar 11 05:28:35 2021

# 

@<TRIPOS>MOLECULE
O=C1C[C@@H](C2=CC=CC=C2)OC3=CC(O)=CC(OC)=C13
   34    36     0
SMALL
USER_CHARGE


@<TRIPOS>ATOM
      1 C1          7.7057    1.2395    0.2948 C.3       1 <1>         0.0352
      2 O2          6.3330    1.2743    0.6904 O.3       1 <1>        -0.3960
      3 C3          5.5558    0.2302    0.3096 C.ar      1 <1>         0.0247
      4 C4          6.0974   -0.8104   -0.4235 C.ar      1 <1>        -0.0255
      5 C5          5.2971   -1.8775   -0.8133 C.ar      1 <1>        -0.0214
      6 O6          5.8374   -2.8952   -1.5295 O.3       1 <1>        -0.4247
      7 C7          3.9500   -1.9131   -0.4769 C.ar      1 <1>        -0.0109
      8 C8          3.3876   -0.8820    0.2547 C.ar      1 <1>         0.0362
      9 C9          4.1972    0.1947    0.6613 C.ar      1 <1>         0.0684
     10 C10         3.5997    1.2777    1.4501 C.2       1 <1>         0.0871
     11 O11         4.2821    2.1106    2.0103 O.2       1 <1>        -0.4551
     12 C12         2.0839    1.3028    1.5303 C.3       1 <1>         0.0693
     13 C13         1.6131   -0.1509    1.6838 C.3       1 <1>         0.0642
     14 H14         2.0198   -0.5696    2.6043 H         1 <1>         0.1406
     15 C15         0.1075   -0.1892    1.7360 C.ar      1 <1>        -0.0681
     16 C16        -0.6241   -0.2215    0.5636 C.ar      1 <1>        -0.0902
     17 C17        -2.0052   -0.2566    0.6114 C.ar      1 <1>        -0.1009
     18 C18        -2.6546   -0.2599    1.8317 C.ar      1 <1>        -0.1046
     19 C19        -1.9229   -0.2285    3.0041 C.ar      1 <1>        -0.1025
     20 C20        -0.5417   -0.1977    2.9563 C.ar      1 <1>        -0.0923
     21 O21         2.0724   -0.9184    0.5734 O.3       1 <1>        -0.3825
     22 H22         7.7697    1.2083   -0.7929 H         1 <1>         0.0931
     23 H23         8.2127    2.1314    0.6631 H         1 <1>         0.1292
     24 H24         8.1818    0.3524    0.7125 H         1 <1>         0.0931
     25 H25         7.1430   -0.7934   -0.6934 H         1 <1>         0.1158
     26 H26         6.1922   -3.6129   -0.9872 H         1 <1>         0.3680
     27 H27         3.3395   -2.7480   -0.7877 H         1 <1>         0.1385
     28 H28         1.7674    1.8886    2.3934 H         1 <1>         0.1028
     29 H29         1.6709    1.7324    0.6176 H         1 <1>         0.1100
     30 H30        -0.1167   -0.2188   -0.3898 H         1 <1>         0.1288
     31 H31        -2.5768   -0.2811   -0.3046 H         1 <1>         0.1210
     32 H32        -3.7336   -0.2866    1.8691 H         1 <1>         0.1218
     33 H33        -2.4303   -0.2308    3.9575 H         1 <1>         0.1205
     34 H34         0.0299   -0.1732    3.8723 H         1 <1>         0.1262
@<TRIPOS>BOND
     1    1    2 1
     2    1   22 1
     3    1   23 1
     4    1   24 1
     5    2    3 1
     6    3    9 ar
     7    3    4 ar
     8    4    5 ar
     9    4   25 1
    10    5    6 1
    11    5    7 ar
    12    6   26 1
    13    7    8 ar
    14    7   27 1
    15    8   21 1
    16    8    9 ar
    17    9   10 1
    18   10   11 2
    19   10   12 1
    20   12   13 1
    21   12   28 1
    22   12   29 1
    23   13   14 1
    24   13   15 1
    25   13   21 1
    26   15   20 ar
    27   15   16 ar
    28   16   17 ar
    29   16   30 1
    30   17   18 ar
    31   17   31 1
    32   18   19 ar
    33   18   32 1
    34   19   20 ar
    35   19   33 1
    36   20   34 1
@<TRIPOS>Similarity
1.0250
@<TRIPOS>ShapeSim
0.6547
@<TRIPOS>PharmSim
0.3703
# END
# Name:		C1C(C(OC2=CC(=CC(=C21)O)O)C3=CC(=C(C=C3)O)O)O
# Created and modified by SHAFTS on Thu Mar 11 05:28:35 2021

# 

@<TRIPOS>MOLECULE
C1C(C(OC2=CC(=CC(=C21)O)O)C3=CC(=C(C=C3)O)O)O
   35    37     0
SMALL
USER_CHARGE


@<TRIPOS>ATOM
      1 O1          5.8437   -3.1243   -1.6763 O.3       1 <1>        -0.4294
      2 C2          4.9126   -2.4004   -1.0012 C.ar      1 <1>        -0.0207
      3 C3          3.5931   -2.8250   -0.9681 C.ar      1 <1>        -0.0313
      4 C4          2.6475   -2.0851   -0.2768 C.ar      1 <1>        -0.0262
      5 O5          1.3542   -2.5015   -0.2441 O.3       1 <1>        -0.4315
      6 C6          3.0160   -0.9191    0.3840 C.ar      1 <1>        -0.0320
      7 C7          1.9604   -0.1472    1.1347 C.3       1 <1>        -0.0073
      8 C8          2.4546    1.2766    1.4017 C.3       1 <1>         0.0157
      9 H9          1.7965    1.7652    2.1202 H         1 <1>         0.1122
     10 O10         2.4694    2.0182    0.1803 O.3       1 <1>        -0.4794
     11 C11         3.8752    1.1938    1.9745 C.3       1 <1>         0.0730
     12 H12         3.8793    0.5509    2.8548 H         1 <1>         0.1573
     13 C13         4.3517    2.5730    2.3513 C.ar      1 <1>        -0.0479
     14 C14         4.8285    3.4282    1.3758 C.ar      1 <1>        -0.0733
     15 C15         5.2673    4.6946    1.7165 C.ar      1 <1>        -0.0550
     16 C16         5.2292    5.1086    3.0378 C.ar      1 <1>        -0.0052
     17 O17         5.6599    6.3539    3.3745 O.3       1 <1>        -0.4310
     18 C18         4.7486    4.2475    4.0202 C.ar      1 <1>        -0.0037
     19 O19         4.7087    4.6496    5.3187 O.3       1 <1>        -0.4317
     20 C20         4.3057    2.9821    3.6714 C.ar      1 <1>        -0.0484
     21 O21         4.7331    0.6445    0.9737 O.3       1 <1>        -0.3771
     22 C22         4.3319   -0.4925    0.3476 C.ar      1 <1>         0.0198
     23 C23         5.2815   -1.2400   -0.3402 C.ar      1 <1>        -0.0160
     24 H24         6.2784   -3.8024   -1.1412 H         1 <1>         0.3664
     25 H25         3.3030   -3.7303   -1.4806 H         1 <1>         0.1317
     26 H26         1.1488   -3.0891    0.4959 H         1 <1>         0.3580
     27 H27         1.0476   -0.1088    0.5402 H         1 <1>         0.0779
     28 H28         1.7540   -0.6434    2.0831 H         1 <1>         0.0779
     29 H29         1.6040    2.0937   -0.2445 H         1 <1>         0.3276
     30 H30         4.8587    3.1065    0.3453 H         1 <1>         0.1443
     31 H31         5.6401    5.3606    0.9524 H         1 <1>         0.1347
     32 H32         4.9684    7.0293    3.3494 H         1 <1>         0.3567
     33 H33         3.8811    5.0813    5.5715 H         1 <1>         0.3564
     34 H34         3.9323    2.3121    4.4317 H         1 <1>         0.1391
     35 H35         6.3103   -0.9122   -0.3631 H         1 <1>         0.1384
@<TRIPOS>BOND
     1    1    2 1
     2    1   24 1
     3    2   23 ar
     4    2    3 ar
     5    3    4 ar
     6    3   25 1
     7    4    5 1
     8    4    6 ar
     9    5   26 1
    10    6   22 ar
    11    6    7 1
    12    7    8 1
    13    7   27 1
    14    7   28 1
    15    8    9 1
    16    8   10 1
    17    8   11 1
    18   10   29 1
    19   11   12 1
    20   11   13 1
    21   11   21 1
    22   13   20 ar
    23   13   14 ar
    24   14   15 ar
    25   14   30 1
    26   15   16 ar
    27   15   31 1
    28   16   17 1
    29   16   18 ar
    30   17   32 1
    31   18   19 1
    32   18   20 ar
    33   19   33 1
    34   20   34 1
    35   21   22 1
    36   22   23 ar
    37   23   35 1
@<TRIPOS>Similarity
1.0249
@<TRIPOS>ShapeSim
0.6008
@<TRIPOS>PharmSim
0.4241
# END
# Name:		C1C(C(OC2=CC(=CC(=C21)O)O)C3=CC(=C(C=C3)O)O)O
# Created and modified by SHAFTS on Thu Mar 11 05:28:35 2021

# 

@<TRIPOS>MOLECULE
C1C(C(OC2=CC(=CC(=C21)O)O)C3=CC(=C(C=C3)O)O)O
   35    37     0
SMALL
USER_CHARGE


@<TRIPOS>ATOM
      1 O1          5.8437   -3.1243   -1.6763 O.3       1 <1>        -0.4294
      2 C2          4.9126   -2.4004   -1.0012 C.ar      1 <1>        -0.0207
      3 C3          3.5931   -2.8250   -0.9681 C.ar      1 <1>        -0.0313
      4 C4          2.6475   -2.0851   -0.2768 C.ar      1 <1>        -0.0262
      5 O5          1.3542   -2.5015   -0.2441 O.3       1 <1>        -0.4315
      6 C6          3.0160   -0.9191    0.3840 C.ar      1 <1>        -0.0320
      7 C7          1.9604   -0.1472    1.1347 C.3       1 <1>        -0.0073
      8 C8          2.4546    1.2766    1.4017 C.3       1 <1>         0.0157
      9 H9          1.7965    1.7652    2.1202 H         1 <1>         0.1122
     10 O10         2.4694    2.0182    0.1803 O.3       1 <1>        -0.4794
     11 C11         3.8752    1.1938    1.9745 C.3       1 <1>         0.0730
     12 H12         3.8793    0.5509    2.8548 H         1 <1>         0.1573
     13 C13         4.3517    2.5730    2.3513 C.ar      1 <1>        -0.0479
     14 C14         4.8285    3.4282    1.3758 C.ar      1 <1>        -0.0733
     15 C15         5.2673    4.6946    1.7165 C.ar      1 <1>        -0.0550
     16 C16         5.2292    5.1086    3.0378 C.ar      1 <1>        -0.0052
     17 O17         5.6599    6.3539    3.3745 O.3       1 <1>        -0.4310
     18 C18         4.7486    4.2475    4.0202 C.ar      1 <1>        -0.0037
     19 O19         4.7087    4.6496    5.3187 O.3       1 <1>        -0.4317
     20 C20         4.3057    2.9821    3.6714 C.ar      1 <1>        -0.0484
     21 O21         4.7331    0.6445    0.9737 O.3       1 <1>        -0.3771
     22 C22         4.3319   -0.4925    0.3476 C.ar      1 <1>         0.0198
     23 C23         5.2815   -1.2400   -0.3402 C.ar      1 <1>        -0.0160
     24 H24         6.2784   -3.8024   -1.1412 H         1 <1>         0.3664
     25 H25         3.3030   -3.7303   -1.4806 H         1 <1>         0.1317
     26 H26         1.1488   -3.0891    0.4959 H         1 <1>         0.3580
     27 H27         1.0476   -0.1088    0.5402 H         1 <1>         0.0779
     28 H28         1.7540   -0.6434    2.0831 H         1 <1>         0.0779
     29 H29         1.6040    2.0937   -0.2445 H         1 <1>         0.3276
     30 H30         4.8587    3.1065    0.3453 H         1 <1>         0.1443
     31 H31         5.6401    5.3606    0.9524 H         1 <1>         0.1347
     32 H32         4.9684    7.0293    3.3494 H         1 <1>         0.3567
     33 H33         3.8811    5.0813    5.5715 H         1 <1>         0.3564
     34 H34         3.9323    2.3121    4.4317 H         1 <1>         0.1391
     35 H35         6.3103   -0.9122   -0.3631 H         1 <1>         0.1384
@<TRIPOS>BOND
     1    1    2 1
     2    1   24 1
     3    2   23 ar
     4    2    3 ar
     5    3    4 ar
     6    3   25 1
     7    4    5 1
     8    4    6 ar
     9    5   26 1
    10    6   22 ar
    11    6    7 1
    12    7    8 1
    13    7   27 1
    14    7   28 1
    15    8    9 1
    16    8   10 1
    17    8   11 1
    18   10   29 1
    19   11   12 1
    20   11   13 1
    21   11   21 1
    22   13   20 ar
    23   13   14 ar
    24   14   15 ar
    25   14   30 1
    26   15   16 ar
    27   15   31 1
    28   16   17 1
    29   16   18 ar
    30   17   32 1
    31   18   19 1
    32   18   20 ar
    33   19   33 1
    34   20   34 1
    35   21   22 1
    36   22   23 ar
    37   23   35 1
@<TRIPOS>Similarity
1.0249
@<TRIPOS>ShapeSim
0.6008
@<TRIPOS>PharmSim
0.4241
# END
# Name:		C1C(C(OC2=CC(=CC(=C21)O)O)C3=CC(=C(C=C3)O)O)O
# Created and modified by SHAFTS on Thu Mar 11 05:28:35 2021

# 

@<TRIPOS>MOLECULE
C1C(C(OC2=CC(=CC(=C21)O)O)C3=CC(=C(C=C3)O)O)O
   35    37     0
SMALL
USER_CHARGE


@<TRIPOS>ATOM
      1 O1          5.8437   -3.1243   -1.6763 O.3       1 <1>        -0.4294
      2 C2          4.9126   -2.4004   -1.0012 C.ar      1 <1>        -0.0207
      3 C3          3.5931   -2.8250   -0.9681 C.ar      1 <1>        -0.0313
      4 C4          2.6475   -2.0851   -0.2768 C.ar      1 <1>        -0.0262
      5 O5          1.3542   -2.5015   -0.2441 O.3       1 <1>        -0.4315
      6 C6          3.0160   -0.9191    0.3840 C.ar      1 <1>        -0.0320
      7 C7          1.9604   -0.1472    1.1347 C.3       1 <1>        -0.0073
      8 C8          2.4546    1.2766    1.4017 C.3       1 <1>         0.0157
      9 H9          1.7965    1.7652    2.1202 H         1 <1>         0.1122
     10 O10         2.4694    2.0182    0.1803 O.3       1 <1>        -0.4794
     11 C11         3.8752    1.1938    1.9745 C.3       1 <1>         0.0730
     12 H12         3.8793    0.5509    2.8548 H         1 <1>         0.1573
     13 C13         4.3517    2.5730    2.3513 C.ar      1 <1>        -0.0479
     14 C14         4.8285    3.4282    1.3758 C.ar      1 <1>        -0.0733
     15 C15         5.2673    4.6946    1.7165 C.ar      1 <1>        -0.0550
     16 C16         5.2292    5.1086    3.0378 C.ar      1 <1>        -0.0052
     17 O17         5.6599    6.3539    3.3745 O.3       1 <1>        -0.4310
     18 C18         4.7486    4.2475    4.0202 C.ar      1 <1>        -0.0037
     19 O19         4.7087    4.6496    5.3187 O.3       1 <1>        -0.4317
     20 C20         4.3057    2.9821    3.6714 C.ar      1 <1>        -0.0484
     21 O21         4.7331    0.6445    0.9737 O.3       1 <1>        -0.3771
     22 C22         4.3319   -0.4925    0.3476 C.ar      1 <1>         0.0198
     23 C23         5.2815   -1.2400   -0.3402 C.ar      1 <1>        -0.0160
     24 H24         6.2784   -3.8024   -1.1412 H         1 <1>         0.3664
     25 H25         3.3030   -3.7303   -1.4806 H         1 <1>         0.1317
     26 H26         1.1488   -3.0891    0.4959 H         1 <1>         0.3580
     27 H27         1.0476   -0.1088    0.5402 H         1 <1>         0.0779
     28 H28         1.7540   -0.6434    2.0831 H         1 <1>         0.0779
     29 H29         1.6040    2.0937   -0.2445 H         1 <1>         0.3276
     30 H30         4.8587    3.1065    0.3453 H         1 <1>         0.1443
     31 H31         5.6401    5.3606    0.9524 H         1 <1>         0.1347
     32 H32         4.9684    7.0293    3.3494 H         1 <1>         0.3567
     33 H33         3.8811    5.0813    5.5715 H         1 <1>         0.3564
     34 H34         3.9323    2.3121    4.4317 H         1 <1>         0.1391
     35 H35         6.3103   -0.9122   -0.3631 H         1 <1>         0.1384
@<TRIPOS>BOND
     1    1    2 1
     2    1   24 1
     3    2   23 ar
     4    2    3 ar
     5    3    4 ar
     6    3   25 1
     7    4    5 1
     8    4    6 ar
     9    5   26 1
    10    6   22 ar
    11    6    7 1
    12    7    8 1
    13    7   27 1
    14    7   28 1
    15    8    9 1
    16    8   10 1
    17    8   11 1
    18   10   29 1
    19   11   12 1
    20   11   13 1
    21   11   21 1
    22   13   20 ar
    23   13   14 ar
    24   14   15 ar
    25   14   30 1
    26   15   16 ar
    27   15   31 1
    28   16   17 1
    29   16   18 ar
    30   17   32 1
    31   18   19 1
    32   18   20 ar
    33   19   33 1
    34   20   34 1
    35   21   22 1
    36   22   23 ar
    37   23   35 1
@<TRIPOS>Similarity
1.0249
@<TRIPOS>ShapeSim
0.6008
@<TRIPOS>PharmSim
0.4241
# END
# Name:		CC1=CC2=CC(=CC(=C2C3=C1C(=CC(=O)O3)O)O)O
# Created and modified by SHAFTS on Thu Mar 11 05:28:35 2021

# 

@<TRIPOS>MOLECULE
CC1=CC2=CC(=CC(=C2C3=C1C(=CC(=O)O3)O)O)O
   28    30     0
SMALL
USER_CHARGE


@<TRIPOS>ATOM
      1 C1         -0.4138   -0.6536    1.9476 C.3       1 <1>        -0.0292
      2 C2          1.0327   -0.4765    1.5634 C.ar      1 <1>        -0.0833
      3 C3          1.7378    0.6575    2.0094 C.ar      1 <1>         0.0098
      4 C4          1.0786    1.6695    2.8451 C.2       1 <1>        -0.0508
      5 O5         -0.2186    1.5365    3.2058 O.3       1 <1>        -0.5451
      6 C6          1.8147    2.7515    3.2496 C.2       1 <1>        -0.0018
      7 C7          3.1561    2.8616    2.8606 C.2       1 <1>         0.1383
      8 O8          3.8034    3.8280    3.2257 O.2       1 <1>        -0.4916
      9 O9          3.7465    1.9290    2.0963 O.3       1 <1>        -0.2947
     10 C10         3.0799    0.8403    1.6643 C.ar      1 <1>         0.0698
     11 C11         3.7209   -0.1250    0.8638 C.ar      1 <1>         0.0175
     12 C12         5.0727    0.0218    0.4945 C.ar      1 <1>        -0.0028
     13 O13         5.7793    1.1042    0.9091 O.3       1 <1>        -0.4222
     14 C14         5.6736   -0.9378   -0.2885 C.ar      1 <1>        -0.0328
     15 C15         4.9561   -2.0546   -0.7197 C.ar      1 <1>        -0.0347
     16 O16         5.5692   -2.9894   -1.4912 O.3       1 <1>        -0.4394
     17 C17         3.6328   -2.2202   -0.3715 C.ar      1 <1>        -0.0533
     18 C18         2.9944   -1.2589    0.4253 C.ar      1 <1>        -0.0587
     19 C19         1.6421   -1.4132    0.7971 C.ar      1 <1>        -0.0826
     20 H20        -0.4740   -1.0890    2.9451 H         1 <1>         0.0595
     21 H21        -0.9121    0.3157    1.9436 H         1 <1>         0.0881
     22 H22        -0.9012   -1.3158    1.2321 H         1 <1>         0.0452
     23 H23         1.3634    3.5158    3.8647 H         1 <1>         0.0762
     24 H24         6.2301    0.9790    1.7554 H         1 <1>         0.3615
     25 H25         6.7096   -0.8253   -0.5719 H         1 <1>         0.1235
     26 H26         5.9925   -3.6985   -0.9882 H         1 <1>         0.3543
     27 H27         3.0885   -3.0888   -0.7119 H         1 <1>         0.1337
     28 H28         1.0891   -2.2797    0.4662 H         1 <1>         0.1154
@<TRIPOS>BOND
     1    1    2 1
     2    1   20 1
     3    1   21 1
     4    1   22 1
     5    2   19 ar
     6    2    3 ar
     7    3   10 ar
     8    3    4 1
     9    4    5 1
    10    4    6 2
    11    6    7 1
    12    6   23 1
    13    7    8 2
    14    7    9 1
    15    9   10 1
    16   10   11 ar
    17   11   18 ar
    18   11   12 ar
    19   12   13 1
    20   12   14 ar
    21   13   24 1
    22   14   15 ar
    23   14   25 1
    24   15   16 1
    25   15   17 ar
    26   16   26 1
    27   17   18 ar
    28   17   27 1
    29   18   19 ar
    30   19   28 1
@<TRIPOS>Similarity
1.0233
@<TRIPOS>ShapeSim
0.6320
@<TRIPOS>PharmSim
0.3913
# END
# Name:		C1CNCCNCCCN(CCNC1)CC2=CC=C(C=C2)CNCC3=CC=CC=N3
# Created and modified by SHAFTS on Thu Mar 11 05:28:35 2021

# 

@<TRIPOS>MOLECULE
C1CNCCNCCCN(CCNC1)CC2=CC=C(C=C2)CNCC3=CC=CC=N3
   71    73     0
SMALL
USER_CHARGE


@<TRIPOS>ATOM
      1 C1         -3.3087    1.2400   -3.3727 C.ar      1 <1>        -0.0585
      2 C2         -3.4661   -0.0216   -2.8203 C.ar      1 <1>        -0.0822
      3 C3         -2.7180   -0.3495   -1.6996 C.ar      1 <1>        -0.0757
      4 C4         -1.8468    0.5857   -1.1745 C.ar      1 <1>        -0.0777
      5 C5         -1.0284    0.2401    0.0429 C.3       1 <1>        -0.0524
      6 N6          0.2937   -0.2434   -0.3769 N.4       1 <1>         0.4349
      7 H7          0.1842   -1.0647   -0.9528 H         1 <1>         0.1554
      8 H8          0.7634    0.4771   -0.9044 H         1 <1>         0.1630
      9 C9          1.0914   -0.5803    0.8098 C.3       1 <1>        -0.0790
     10 C10         2.4477   -1.0763    0.3791 C.ar      1 <1>        -0.1243
     11 C11         2.6474   -2.4232    0.1410 C.ar      1 <1>        -0.1038
     12 C12         3.8916   -2.8783   -0.2541 C.ar      1 <1>        -0.1019
     13 C13         4.9358   -1.9862   -0.4115 C.ar      1 <1>        -0.1259
     14 C14         6.2922   -2.4823   -0.8417 C.3       1 <1>        -0.1601
     15 N15         6.9843   -1.4263   -1.5925 N.3       1 <1>         0.3354
     16 C16         8.4078   -1.7473   -1.7618 C.3       1 <1>        -0.1841
     17 C17         8.7953   -2.8708   -0.7984 C.3       1 <1>        -0.0892
     18 C18         9.5796   -3.9443   -1.5558 C.3       1 <1>        -0.1126
     19 N19         9.0163   -5.2670   -1.2538 N.4       1 <1>         0.4265
     20 H20         9.6293   -5.7565   -0.6193 H         1 <1>         0.1594
     21 H21         8.1088   -5.1565   -0.8267 H         1 <1>         0.1442
     22 C22         8.8819   -6.0375   -2.4971 C.3       1 <1>        -0.1241
     23 C23         7.5406   -6.7737   -2.4985 C.3       1 <1>        -0.2117
     24 N24         6.8772   -6.5805   -3.7948 N.3       1 <1>         0.3049
     25 C25         5.4615   -6.2323   -3.6150 C.3       1 <1>        -0.2050
     26 C26         5.1045   -5.0596   -4.5305 C.3       1 <1>        -0.0906
     27 C27         4.3321   -4.0068   -3.7330 C.3       1 <1>        -0.1147
     28 N28         4.8039   -2.6666   -4.1060 N.4       1 <1>         0.4264
     29 H29         5.6944   -2.7418   -4.5744 H         1 <1>         0.1418
     30 H30         4.1340   -2.2342   -4.7244 H         1 <1>         0.1572
     31 C31         4.9545   -1.8463   -2.8967 C.3       1 <1>        -0.1255
     32 C32         6.3388   -1.1946   -2.8916 C.3       1 <1>        -0.1946
     33 C33         4.7357   -0.6391   -0.1747 C.ar      1 <1>        -0.0861
     34 C34         3.4906   -0.1836    0.2166 C.ar      1 <1>        -0.0934
     35 N35        -1.7226    1.7769   -1.7265 N.ar      1 <1>        -0.4090
     36 C36        -2.4176    2.1230   -2.7922 C.ar      1 <1>        -0.0343
     37 H37        -3.8719    1.5277   -4.2482 H         1 <1>         0.1445
     38 H38        -4.1553   -0.7322   -3.2522 H         1 <1>         0.1472
     39 H39        -2.8155   -1.3232   -1.2427 H         1 <1>         0.1311
     40 H40        -0.9101    1.1273    0.6650 H         1 <1>         0.1288
     41 H41        -1.5358   -0.5383    0.6128 H         1 <1>         0.1288
     42 H42         1.2096    0.3069    1.4318 H         1 <1>         0.1166
     43 H43         0.5840   -1.3587    1.3796 H         1 <1>         0.1166
     44 H44         1.8316   -3.1201    0.2639 H         1 <1>         0.1351
     45 H45         4.0478   -3.9307   -0.4395 H         1 <1>         0.1175
     46 H46         6.8785   -2.7461    0.0385 H         1 <1>         0.0947
     47 H47         6.1734   -3.3608   -1.4758 H         1 <1>         0.0301
     48 H48         8.5880   -2.0696   -2.7873 H         1 <1>         0.0440
     49 H49         9.0076   -0.8625   -1.5483 H         1 <1>         0.0727
     50 H50         9.4142   -2.4657    0.0022 H         1 <1>         0.0729
     51 H51         7.8938   -3.3118   -0.3731 H         1 <1>         0.0657
     52 H52         9.5109   -3.7562   -2.6274 H         1 <1>         0.0821
     53 H53        10.6248   -3.9156   -1.2482 H         1 <1>         0.0964
     54 H54         8.9257   -5.3608   -3.3506 H         1 <1>         0.0851
     55 H55         9.6938   -6.7616   -2.5655 H         1 <1>         0.0994
     56 H56         7.7099   -7.8375   -2.3318 H         1 <1>         0.0780
     57 H57         6.9080   -6.3777   -1.7041 H         1 <1>         0.0421
     58 H58         7.3545   -5.8819   -4.3446 H         1 <1>        -0.0145
     59 H59         4.8410   -7.0923   -3.8673 H         1 <1>         0.0719
     60 H60         5.2859   -5.9496   -2.5771 H         1 <1>         0.0361
     61 H61         6.0182   -4.6170   -4.9271 H         1 <1>         0.0572
     62 H62         4.4865   -5.4168   -5.3544 H         1 <1>         0.0786
     63 H63         3.2681   -4.0920   -3.9539 H         1 <1>         0.0894
     64 H64         4.4959   -4.1660   -2.6672 H         1 <1>         0.0751
     65 H65         4.1881   -1.0713   -2.8856 H         1 <1>         0.0818
     66 H66         4.8466   -2.4768   -2.0142 H         1 <1>         0.1032
     67 H67         6.2363   -0.1226   -3.0604 H         1 <1>         0.0776
     68 H68         6.9484   -1.6303   -3.6831 H         1 <1>         0.0417
     69 H69         5.5514    0.0579   -0.2981 H         1 <1>         0.1530
     70 H70         3.3342    0.8688    0.4017 H         1 <1>         0.1449
     71 H71        -2.2891    3.1079   -3.2166 H         1 <1>         0.2117
@<TRIPOS>BOND
     1    1   36 ar
     2    1    2 ar
     3    1   37 1
     4    2    3 ar
     5    2   38 1
     6    3    4 ar
     7    3   39 1
     8    4    5 1
     9    4   35 ar
    10    5    6 1
    11    5   40 1
    12    5   41 1
    13    6    7 1
    14    6    8 1
    15    6    9 1
    16    9   10 1
    17    9   42 1
    18    9   43 1
    19   10   34 ar
    20   10   11 ar
    21   11   12 ar
    22   11   44 1
    23   12   13 ar
    24   12   45 1
    25   13   14 1
    26   13   33 ar
    27   14   15 1
    28   14   46 1
    29   14   47 1
    30   15   32 1
    31   15   16 1
    32   16   17 1
    33   16   48 1
    34   16   49 1
    35   17   18 1
    36   17   50 1
    37   17   51 1
    38   18   19 1
    39   18   52 1
    40   18   53 1
    41   19   20 1
    42   19   21 1
    43   19   22 1
    44   22   23 1
    45   22   54 1
    46   22   55 1
    47   23   24 1
    48   23   56 1
    49   23   57 1
    50   24   25 1
    51   24   58 1
    52   25   26 1
    53   25   59 1
    54   25   60 1
    55   26   27 1
    56   26   61 1
    57   26   62 1
    58   27   28 1
    59   27   63 1
    60   27   64 1
    61   28   29 1
    62   28   30 1
    63   28   31 1
    64   31   32 1
    65   31   65 1
    66   31   66 1
    67   32   67 1
    68   32   68 1
    69   33   34 ar
    70   33   69 1
    71   34   70 1
    72   35   36 ar
    73   36   71 1
@<TRIPOS>Similarity
1.0226
@<TRIPOS>ShapeSim
0.6161
@<TRIPOS>PharmSim
0.4065
# END
# Name:		C1(CNCC2=CC=C(CN3CCNCCCNCCNCCC3)C=C2)=NC=CC=C1
# Created and modified by SHAFTS on Thu Mar 11 05:28:35 2021

# 

@<TRIPOS>MOLECULE
C1(CNCC2=CC=C(CN3CCNCCCNCCNCCC3)C=C2)=NC=CC=C1
   71    73     0
SMALL
USER_CHARGE


@<TRIPOS>ATOM
      1 C1         -3.3087    1.2400   -3.3727 C.ar      1 <1>        -0.0585
      2 C2         -3.4661   -0.0216   -2.8203 C.ar      1 <1>        -0.0822
      3 C3         -2.7180   -0.3495   -1.6996 C.ar      1 <1>        -0.0757
      4 C4         -1.8468    0.5857   -1.1745 C.ar      1 <1>        -0.0777
      5 C5         -1.0284    0.2401    0.0429 C.3       1 <1>        -0.0524
      6 N6          0.2937   -0.2434   -0.3769 N.4       1 <1>         0.4349
      7 H7          0.1842   -1.0647   -0.9528 H         1 <1>         0.1554
      8 H8          0.7634    0.4771   -0.9044 H         1 <1>         0.1630
      9 C9          1.0914   -0.5803    0.8098 C.3       1 <1>        -0.0790
     10 C10         2.4477   -1.0763    0.3791 C.ar      1 <1>        -0.1243
     11 C11         2.6474   -2.4232    0.1410 C.ar      1 <1>        -0.1038
     12 C12         3.8916   -2.8783   -0.2541 C.ar      1 <1>        -0.1019
     13 C13         4.9358   -1.9862   -0.4115 C.ar      1 <1>        -0.1259
     14 C14         6.2922   -2.4823   -0.8417 C.3       1 <1>        -0.1601
     15 N15         6.9843   -1.4263   -1.5925 N.3       1 <1>         0.3354
     16 C16         8.4078   -1.7473   -1.7618 C.3       1 <1>        -0.1841
     17 C17         8.7953   -2.8708   -0.7984 C.3       1 <1>        -0.0892
     18 C18         9.5796   -3.9443   -1.5558 C.3       1 <1>        -0.1126
     19 N19         9.0163   -5.2670   -1.2538 N.4       1 <1>         0.4265
     20 H20         9.6293   -5.7565   -0.6193 H         1 <1>         0.1594
     21 H21         8.1088   -5.1565   -0.8267 H         1 <1>         0.1442
     22 C22         8.8819   -6.0375   -2.4971 C.3       1 <1>        -0.1241
     23 C23         7.5406   -6.7737   -2.4985 C.3       1 <1>        -0.2117
     24 N24         6.8772   -6.5805   -3.7948 N.3       1 <1>         0.3049
     25 C25         5.4615   -6.2323   -3.6150 C.3       1 <1>        -0.2050
     26 C26         5.1045   -5.0596   -4.5305 C.3       1 <1>        -0.0906
     27 C27         4.3321   -4.0068   -3.7330 C.3       1 <1>        -0.1147
     28 N28         4.8039   -2.6666   -4.1060 N.4       1 <1>         0.4264
     29 H29         5.6944   -2.7418   -4.5744 H         1 <1>         0.1418
     30 H30         4.1340   -2.2342   -4.7244 H         1 <1>         0.1572
     31 C31         4.9545   -1.8463   -2.8967 C.3       1 <1>        -0.1255
     32 C32         6.3388   -1.1946   -2.8916 C.3       1 <1>        -0.1946
     33 C33         4.7357   -0.6391   -0.1747 C.ar      1 <1>        -0.0861
     34 C34         3.4906   -0.1836    0.2166 C.ar      1 <1>        -0.0934
     35 N35        -1.7226    1.7769   -1.7265 N.ar      1 <1>        -0.4090
     36 C36        -2.4176    2.1230   -2.7922 C.ar      1 <1>        -0.0343
     37 H37        -3.8719    1.5277   -4.2482 H         1 <1>         0.1445
     38 H38        -4.1553   -0.7322   -3.2522 H         1 <1>         0.1472
     39 H39        -2.8155   -1.3232   -1.2427 H         1 <1>         0.1311
     40 H40        -0.9101    1.1273    0.6650 H         1 <1>         0.1288
     41 H41        -1.5358   -0.5383    0.6128 H         1 <1>         0.1288
     42 H42         1.2096    0.3069    1.4318 H         1 <1>         0.1166
     43 H43         0.5840   -1.3587    1.3796 H         1 <1>         0.1166
     44 H44         1.8316   -3.1201    0.2639 H         1 <1>         0.1351
     45 H45         4.0478   -3.9307   -0.4395 H         1 <1>         0.1175
     46 H46         6.8785   -2.7461    0.0385 H         1 <1>         0.0947
     47 H47         6.1734   -3.3608   -1.4758 H         1 <1>         0.0301
     48 H48         8.5880   -2.0696   -2.7873 H         1 <1>         0.0440
     49 H49         9.0076   -0.8625   -1.5483 H         1 <1>         0.0727
     50 H50         9.4142   -2.4657    0.0022 H         1 <1>         0.0729
     51 H51         7.8938   -3.3118   -0.3731 H         1 <1>         0.0657
     52 H52         9.5109   -3.7562   -2.6274 H         1 <1>         0.0821
     53 H53        10.6248   -3.9156   -1.2482 H         1 <1>         0.0964
     54 H54         8.9257   -5.3608   -3.3506 H         1 <1>         0.0851
     55 H55         9.6938   -6.7616   -2.5655 H         1 <1>         0.0994
     56 H56         7.7099   -7.8375   -2.3318 H         1 <1>         0.0780
     57 H57         6.9080   -6.3777   -1.7041 H         1 <1>         0.0421
     58 H58         7.3545   -5.8819   -4.3446 H         1 <1>        -0.0145
     59 H59         4.8410   -7.0923   -3.8673 H         1 <1>         0.0719
     60 H60         5.2859   -5.9496   -2.5771 H         1 <1>         0.0361
     61 H61         6.0182   -4.6170   -4.9271 H         1 <1>         0.0572
     62 H62         4.4865   -5.4168   -5.3544 H         1 <1>         0.0786
     63 H63         3.2681   -4.0920   -3.9539 H         1 <1>         0.0894
     64 H64         4.4959   -4.1660   -2.6672 H         1 <1>         0.0751
     65 H65         4.1881   -1.0713   -2.8856 H         1 <1>         0.0818
     66 H66         4.8466   -2.4768   -2.0142 H         1 <1>         0.1032
     67 H67         6.2363   -0.1226   -3.0604 H         1 <1>         0.0776
     68 H68         6.9484   -1.6303   -3.6831 H         1 <1>         0.0417
     69 H69         5.5514    0.0579   -0.2981 H         1 <1>         0.1530
     70 H70         3.3342    0.8688    0.4017 H         1 <1>         0.1449
     71 H71        -2.2891    3.1079   -3.2166 H         1 <1>         0.2117
@<TRIPOS>BOND
     1    1   36 ar
     2    1    2 ar
     3    1   37 1
     4    2    3 ar
     5    2   38 1
     6    3    4 ar
     7    3   39 1
     8    4    5 1
     9    4   35 ar
    10    5    6 1
    11    5   40 1
    12    5   41 1
    13    6    7 1
    14    6    8 1
    15    6    9 1
    16    9   10 1
    17    9   42 1
    18    9   43 1
    19   10   34 ar
    20   10   11 ar
    21   11   12 ar
    22   11   44 1
    23   12   13 ar
    24   12   45 1
    25   13   14 1
    26   13   33 ar
    27   14   15 1
    28   14   46 1
    29   14   47 1
    30   15   32 1
    31   15   16 1
    32   16   17 1
    33   16   48 1
    34   16   49 1
    35   17   18 1
    36   17   50 1
    37   17   51 1
    38   18   19 1
    39   18   52 1
    40   18   53 1
    41   19   20 1
    42   19   21 1
    43   19   22 1
    44   22   23 1
    45   22   54 1
    46   22   55 1
    47   23   24 1
    48   23   56 1
    49   23   57 1
    50   24   25 1
    51   24   58 1
    52   25   26 1
    53   25   59 1
    54   25   60 1
    55   26   27 1
    56   26   61 1
    57   26   62 1
    58   27   28 1
    59   27   63 1
    60   27   64 1
    61   28   29 1
    62   28   30 1
    63   28   31 1
    64   31   32 1
    65   31   65 1
    66   31   66 1
    67   32   67 1
    68   32   68 1
    69   33   34 ar
    70   33   69 1
    71   34   70 1
    72   35   36 ar
    73   36   71 1
@<TRIPOS>Similarity
1.0226
@<TRIPOS>ShapeSim
0.6161
@<TRIPOS>PharmSim
0.4065
# END
# Name:		O=C1NC2=NC=C(C3=CC=C(C4=NNC=N4)C=C3)N=C2N1CCC5CCOCC5
# Created and modified by SHAFTS on Thu Mar 11 05:28:35 2021

# 

@<TRIPOS>MOLECULE
O=C1NC2=NC=C(C3=CC=C(C4=NNC=N4)C=C3)N=C2N1CCC5CCOCC5
   50    54     0
SMALL
USER_CHARGE


@<TRIPOS>ATOM
      1 O1          2.3372    0.6863    3.9468 O.2       1 <1>        -0.4419
      2 C2          1.4708    0.8492    3.1083 C.2       1 <1>         0.1887
      3 N3          0.5013    1.7811    3.1675 N.am      1 <1>        -0.2257
      4 C4         -0.2936    1.6588    2.0366 C.ar      1 <1>         0.0936
      5 N5         -1.3614    2.3103    1.6039 N.ar      1 <1>        -0.3301
      6 C6         -1.9256    1.9664    0.4597 C.ar      1 <1>         0.0304
      7 C7         -1.3998    0.9187   -0.2939 C.ar      1 <1>         0.0360
      8 C8         -2.0370    0.5373   -1.5768 C.ar      1 <1>        -0.0243
      9 C9         -1.5805   -0.5793   -2.2774 C.ar      1 <1>        -0.0614
     10 C10        -2.1727   -0.9336   -3.4695 C.ar      1 <1>        -0.0533
     11 C11        -3.2282   -0.1760   -3.9761 C.ar      1 <1>         0.0031
     12 C12        -3.8654   -0.5574   -5.2600 C.2       1 <1>         0.0563
     13 N13        -3.5295   -1.5871   -6.0065 N.2       1 <1>        -0.3184
     14 N14        -4.3846   -1.5740   -7.1205 N.pl3     1 <1>        -0.2855
     15 C15        -5.1971   -0.5128   -6.9667 C.2       1 <1>         0.0296
     16 N16        -4.8826    0.0863   -5.8489 N.2       1 <1>        -0.3514
     17 C17        -3.6850    0.9399   -3.2755 C.ar      1 <1>        -0.0523
     18 C18        -3.0968    1.2913   -2.0806 C.ar      1 <1>        -0.0624
     19 N19        -0.3256    0.2604    0.1366 N.ar      1 <1>        -0.3177
     20 C20         0.2390    0.6035    1.2811 C.ar      1 <1>         0.1040
     21 N21         1.3408    0.1284    1.9789 N.am      1 <1>        -0.2417
     22 C22         2.2131   -0.9708    1.5583 C.3       1 <1>         0.0162
     23 C23         3.3626   -0.4157    0.7148 C.3       1 <1>        -0.0412
     24 C24         4.2736   -1.5637    0.2757 C.3       1 <1>        -0.0636
     25 C25         3.5059   -2.4951   -0.6675 C.3       1 <1>        -0.0442
     26 C26         4.4474   -3.5956   -1.1635 C.3       1 <1>        -0.0056
     27 O27         5.5730   -3.0008   -1.8126 O.3       1 <1>        -0.4710
     28 C28         6.3559   -2.1566   -0.9662 C.3       1 <1>        -0.0062
     29 C29         5.4910   -0.9982   -0.4623 C.3       1 <1>        -0.0472
     30 H30         0.3788    2.4281    3.8797 H         1 <1>         0.3731
     31 H31        -2.7971    2.4985    0.1077 H         1 <1>         0.2348
     32 H32        -0.7627   -1.1656   -1.8855 H         1 <1>         0.1437
     33 H33        -1.8194   -1.7980   -4.0119 H         1 <1>         0.1433
     34 H34        -4.3883   -2.2057   -7.8565 H         1 <1>         0.3898
     35 H35        -5.9782   -0.2101   -7.6484 H         1 <1>         0.3026
     36 H36        -4.5025    1.5265   -3.6681 H         1 <1>         0.1475
     37 H37        -3.4509    2.1553   -1.5380 H         1 <1>         0.1394
     38 H38         2.6170   -1.4713    2.4384 H         1 <1>         0.1299
     39 H39         1.6394   -1.6838    0.9662 H         1 <1>         0.1299
     40 H40         2.9587    0.0848   -0.1652 H         1 <1>         0.0549
     41 H41         3.9364    0.2973    1.3070 H         1 <1>         0.0549
     42 H42         4.6049   -2.1218    1.1514 H         1 <1>         0.0562
     43 H43         2.6689   -2.9450   -0.1335 H         1 <1>         0.0562
     44 H44         3.1322   -1.9248   -1.5180 H         1 <1>         0.0562
     45 H45         4.7889   -4.1908   -0.3166 H         1 <1>         0.0826
     46 H46         3.9180   -4.2365   -1.8685 H         1 <1>         0.1115
     47 H47         6.7223   -2.7329   -0.1167 H         1 <1>         0.0826
     48 H48         7.2013   -1.7609   -1.5290 H         1 <1>         0.1115
     49 H49         5.1574   -0.3978   -1.3086 H         1 <1>         0.0484
     50 H50         6.0738   -0.3779    0.2185 H         1 <1>         0.0484
@<TRIPOS>BOND
     1    1    2 2
     2    2   21 am
     3    2    3 am
     4    3    4 1
     5    3   30 1
     6    4   20 ar
     7    4    5 ar
     8    5    6 ar
     9    6    7 ar
    10    6   31 1
    11    7    8 1
    12    7   19 ar
    13    8   18 ar
    14    8    9 ar
    15    9   10 ar
    16    9   32 1
    17   10   11 ar
    18   10   33 1
    19   11   12 1
    20   11   17 ar
    21   12   16 1
    22   12   13 2
    23   13   14 1
    24   14   15 1
    25   14   34 1
    26   15   16 2
    27   15   35 1
    28   17   18 ar
    29   17   36 1
    30   18   37 1
    31   19   20 ar
    32   20   21 1
    33   21   22 1
    34   22   23 1
    35   22   38 1
    36   22   39 1
    37   23   24 1
    38   23   40 1
    39   23   41 1
    40   24   29 1
    41   24   25 1
    42   24   42 1
    43   25   26 1
    44   25   43 1
    45   25   44 1
    46   26   27 1
    47   26   45 1
    48   26   46 1
    49   27   28 1
    50   28   29 1
    51   28   47 1
    52   28   48 1
    53   29   49 1
    54   29   50 1
@<TRIPOS>Similarity
1.0225
@<TRIPOS>ShapeSim
0.6908
@<TRIPOS>PharmSim
0.3317
# END
# Name:		NS(C(C=C1)=CC(/C2=C/C3=CNC4=CC=CC=C43)=C1NC2=O)(=O)=O
# Created and modified by SHAFTS on Thu Mar 11 05:28:35 2021

# 

@<TRIPOS>MOLECULE
NS(C(C=C1)=CC(/C2=C/C3=CNC4=CC=CC=C43)=C1NC2=O)(=O)=O
   37    40     0
SMALL
USER_CHARGE


@<TRIPOS>ATOM
      1 N1          5.8103   -2.9602   -1.5358 N.am      1 <1>        -0.1574
      2 S2          4.7624   -3.3677   -0.3198 S.o2      1 <1>        -0.0668
      3 O3          3.8824   -4.3444   -0.8592 O.2       1 <1>        -0.0810
      4 O4          5.5573   -3.5918    0.8365 O.2       1 <1>        -0.0810
      5 C5          3.7794   -1.9455    0.0200 C.ar      1 <1>         0.2934
      6 C6          4.2005   -1.0234    0.9633 C.ar      1 <1>         0.0056
      7 C7          3.4413    0.0957    1.2405 C.ar      1 <1>        -0.0521
      8 C8          2.2412    0.3078    0.5713 C.ar      1 <1>        -0.0352
      9 N9          1.3022    1.3283    0.6562 N.am      1 <1>        -0.2946
     10 C10         0.2780    1.1232   -0.1893 C.2       1 <1>         0.1179
     11 O11        -0.6886    1.8508   -0.3324 O.2       1 <1>        -0.4616
     12 C12         0.5281   -0.1307   -0.9108 C.2       1 <1>         0.0380
     13 C13        -0.2674   -0.7184   -1.8732 C.2       1 <1>        -0.0440
     14 C14        -1.5534   -0.1937   -2.1455 C.2       1 <1>        -0.0422
     15 C15        -2.4344    0.3540   -1.2352 C.2       1 <1>        -0.0424
     16 N16        -3.5611    0.7456   -1.8765 N.pl3     1 <1>        -0.3569
     17 C17        -3.4704    0.4743   -3.2269 C.ar      1 <1>        -0.0626
     18 C18        -4.3384    0.6774   -4.2949 C.ar      1 <1>        -0.0770
     19 C19        -3.9671    0.2944   -5.5657 C.ar      1 <1>        -0.0972
     20 C20        -2.7324   -0.2945   -5.7938 C.ar      1 <1>        -0.0991
     21 C21        -1.8590   -0.5043   -4.7484 C.ar      1 <1>        -0.0882
     22 C22        -2.2187   -0.1164   -3.4611 C.ar      1 <1>        -0.0657
     23 C23         1.8187   -0.6278   -0.3830 C.ar      1 <1>        -0.0267
     24 C24         2.5932   -1.7493   -0.6585 C.ar      1 <1>         0.0153
     25 H25         5.7926   -3.4468   -2.3747 H         1 <1>         0.3213
     26 H26         6.4389   -2.2322   -1.4105 H         1 <1>         0.3213
     27 H27         5.1316   -1.1813    1.4872 H         1 <1>         0.1604
     28 H28         3.7800    0.8074    1.9788 H         1 <1>         0.1347
     29 H29         1.3764    2.0917    1.2501 H         1 <1>         0.3370
     30 H30         0.0913   -1.5788   -2.4187 H         1 <1>         0.1811
     31 H31        -2.2534    0.4544   -0.1752 H         1 <1>         0.2266
     32 H32        -4.3258    1.1590   -1.4463 H         1 <1>         0.3352
     33 H33        -5.3026    1.1344   -4.1283 H         1 <1>         0.1211
     34 H34        -4.6443    0.4541   -6.3917 H         1 <1>         0.1246
     35 H35        -2.4543   -0.5901   -6.7947 H         1 <1>         0.1193
     36 H36        -0.8980   -0.9634   -4.9280 H         1 <1>         0.1315
     37 H37         2.2669   -2.4653   -1.3983 H         1 <1>         0.1673
@<TRIPOS>BOND
     1    1    2 am
     2    1   25 1
     3    1   26 1
     4    2    3 2
     5    2    4 2
     6    2    5 1
     7    5   24 ar
     8    5    6 ar
     9    6    7 ar
    10    6   27 1
    11    7    8 ar
    12    7   28 1
    13    8   23 ar
    14    8    9 1
    15    9   10 am
    16    9   29 1
    17   10   11 2
    18   10   12 1
    19   12   13 2
    20   12   23 1
    21   13   14 1
    22   13   30 1
    23   14   22 1
    24   14   15 2
    25   15   16 1
    26   15   31 1
    27   16   17 1
    28   16   32 1
    29   17   22 ar
    30   17   18 ar
    31   18   19 ar
    32   18   33 1
    33   19   20 ar
    34   19   34 1
    35   20   21 ar
    36   20   35 1
    37   21   22 ar
    38   21   36 1
    39   23   24 ar
    40   24   37 1
@<TRIPOS>Similarity
1.0221
@<TRIPOS>ShapeSim
0.7291
@<TRIPOS>PharmSim
0.2929
# END
# Name:		CCC1=C(C2=CC=CC=C2C=C1)CNC(=O)C3=C(C=C(C4=C3OC5=CC(=C(C(=O)[C@]54C)C(=O)C)O)O)OC
# Created and modified by SHAFTS on Thu Mar 11 05:28:35 2021

# 

@<TRIPOS>MOLECULE
CCC1=C(C2=CC=CC=C2C=C1)CNC(=O)C3=C(C=C(C4=C3OC5=CC(=C(C(=O)[C@]54C)C(=O)C)O)O)OC
   63    67     0
SMALL
USER_CHARGE


@<TRIPOS>ATOM
      1 C1         -0.8381    3.0095   -0.9419 C.3       1 <1>        -0.0621
      2 C2         -2.2595    2.5059   -0.6829 C.3       1 <1>        -0.0454
      3 C3         -2.5801    1.3904   -1.6440 C.ar      1 <1>        -0.0993
      4 C4         -3.2468    1.6792   -2.8330 C.ar      1 <1>        -0.0952
      5 C5         -3.5514    0.6951   -3.7227 C.ar      1 <1>        -0.0903
      6 C6         -3.1896   -0.6330   -3.4411 C.ar      1 <1>        -0.0799
      7 C7         -3.4865   -1.6759   -4.3353 C.ar      1 <1>        -0.0960
      8 C8         -3.1201   -2.9503   -4.0291 C.ar      1 <1>        -0.1063
      9 C9         -2.4534   -3.2392   -2.8398 C.ar      1 <1>        -0.1038
     10 C10        -2.1492   -2.2554   -1.9499 C.ar      1 <1>        -0.0871
     11 C11        -2.5115   -0.9269   -2.2315 C.ar      1 <1>        -0.0689
     12 C12        -2.2091    0.1164   -1.3402 C.ar      1 <1>        -0.0675
     13 C13        -1.4829   -0.1744   -0.0522 C.3       1 <1>        -0.0022
     14 N14        -0.0381   -0.0739   -0.2729 N.am      1 <1>        -0.3354
     15 C15         0.8162   -0.2948    0.7459 C.2       1 <1>         0.0997
     16 O16         0.3875   -0.5776    1.8486 O.2       1 <1>        -0.4937
     17 C17         2.2663   -0.1940    0.5244 C.ar      1 <1>         0.0839
     18 C18         2.9206    1.0315    0.7119 C.ar      1 <1>         0.0105
     19 O19         2.2129    2.1271    1.0846 O.3       1 <1>        -0.4125
     20 C20         2.9433    3.3432    1.2578 C.3       1 <1>         0.0216
     21 C21         4.2871    1.1248    0.5178 C.ar      1 <1>        -0.0389
     22 C22         5.0106   -0.0000    0.1415 C.ar      1 <1>        -0.0573
     23 O23         6.3522    0.0908   -0.0423 O.3       1 <1>        -0.5415
     24 C24         4.3705   -1.2131   -0.0465 C.ar      1 <1>        -0.0045
     25 C25         2.9994   -1.3302    0.1293 C.ar      1 <1>         0.0423
     26 O26         2.5781   -2.5878   -0.1592 O.3       1 <1>        -0.3528
     27 C27         3.5499   -3.3374   -0.6773 C.2       1 <1>         0.0379
     28 C28         3.5079   -4.5175   -1.3328 C.2       1 <1>         0.0106
     29 C29         4.8190   -4.9678   -1.8619 C.2       1 <1>         0.0530
     30 O30         5.1804   -6.1307   -1.8219 O.2       1 <1>        -0.5048
     31 C31         5.6608   -3.8810   -2.4468 C.2       1 <1>         0.0482
     32 C32         6.4034   -4.0621   -3.5935 C.2       1 <1>        -0.0662
     33 C33         6.3837   -5.3922   -4.3018 C.3       1 <1>        -0.0083
     34 O34         7.1437   -3.0542   -4.0794 O.3       1 <1>        -0.5364
     35 C35         5.6429   -2.5949   -1.7107 C.2       1 <1>         0.0776
     36 O36         6.2268   -1.6107   -2.1152 O.2       1 <1>        -0.4554
     37 C37         4.8519   -2.5890   -0.4203 C.3       1 <1>         0.0851
     38 C38         5.6514   -3.2356    0.7127 C.3       1 <1>        -0.0300
     39 H39        -0.6062    3.8164   -0.2468 H         1 <1>         0.0365
     40 H40        -0.1314    2.1921   -0.7987 H         1 <1>         0.0436
     41 H41        -0.7642    3.3787   -1.9649 H         1 <1>         0.0293
     42 H42        -2.3334    2.1367    0.3400 H         1 <1>         0.0657
     43 H43        -2.9662    3.3233   -0.8262 H         1 <1>         0.0586
     44 H44        -3.5264    2.6992   -3.0517 H         1 <1>         0.1176
     45 H45        -4.0689    0.9338   -4.6401 H         1 <1>         0.1202
     46 H46        -4.0030   -1.4670   -5.2606 H         1 <1>         0.1170
     47 H47        -3.3497   -3.7498   -4.7178 H         1 <1>         0.1122
     48 H48        -2.1741   -4.2593   -2.6208 H         1 <1>         0.1127
     49 H49        -1.6325   -2.4942   -1.0321 H         1 <1>         0.1284
     50 H50        -1.7856    0.5473    0.7065 H         1 <1>         0.1182
     51 H51        -1.7298   -1.1811    0.2850 H         1 <1>         0.1110
     52 H52         0.3037    0.1516   -1.1522 H         1 <1>         0.3009
     53 H53         2.2597    4.1383    1.5552 H         1 <1>         0.1078
     54 H54         3.6993    3.2059    2.0308 H         1 <1>         0.0861
     55 H55         3.4279    3.6127    0.3194 H         1 <1>         0.0861
     56 H56         4.7904    2.0700    0.6582 H         1 <1>         0.0805
     57 H57         2.5979   -5.0850   -1.4607 H         1 <1>         0.1287
     58 H58         5.3641   -5.6253   -4.6088 H         1 <1>         0.0572
     59 H59         7.0260   -5.3451   -5.1810 H         1 <1>         0.0500
     60 H60         6.7467   -6.1681   -3.6278 H         1 <1>         0.0643
     61 H61         6.5713   -2.6738    0.8748 H         1 <1>         0.0557
     62 H62         5.0567   -3.2303    1.6261 H         1 <1>         0.0415
     63 H63         5.8959   -4.2633    0.4443 H         1 <1>         0.0415
@<TRIPOS>BOND
     1    1    2 1
     2    1   39 1
     3    1   40 1
     4    1   41 1
     5    2    3 1
     6    2   42 1
     7    2   43 1
     8    3   12 ar
     9    3    4 ar
    10    4    5 ar
    11    4   44 1
    12    5    6 ar
    13    5   45 1
    14    6   11 ar
    15    6    7 ar
    16    7    8 ar
    17    7   46 1
    18    8    9 ar
    19    8   47 1
    20    9   10 ar
    21    9   48 1
    22   10   11 ar
    23   10   49 1
    24   11   12 ar
    25   12   13 1
    26   13   14 1
    27   13   50 1
    28   13   51 1
    29   14   15 am
    30   14   52 1
    31   15   16 2
    32   15   17 1
    33   17   25 ar
    34   17   18 ar
    35   18   19 1
    36   18   21 ar
    37   19   20 1
    38   20   53 1
    39   20   54 1
    40   20   55 1
    41   21   22 ar
    42   21   56 1
    43   22   23 1
    44   22   24 ar
    45   24   37 1
    46   24   25 ar
    47   25   26 1
    48   26   27 1
    49   27   37 1
    50   27   28 2
    51   28   29 1
    52   28   57 1
    53   29   30 2
    54   29   31 1
    55   31   32 2
    56   31   35 1
    57   32   33 1
    58   32   34 1
    59   33   58 1
    60   33   59 1
    61   33   60 1
    62   35   36 2
    63   35   37 1
    64   37   38 1
    65   38   61 1
    66   38   62 1
    67   38   63 1
@<TRIPOS>Similarity
1.0219
@<TRIPOS>ShapeSim
0.7299
@<TRIPOS>PharmSim
0.2920
# END
# Name:		C1[C@H](OC2=CC(=CC(=C2C1=O)O)O)C3=CC(=C(C=C3)O)O
# Created and modified by SHAFTS on Thu Mar 11 05:28:35 2021

# 

@<TRIPOS>MOLECULE
C1[C@H](OC2=CC(=CC(=C2C1=O)O)O)C3=CC(=C(C=C3)O)O
   33    35     0
SMALL
USER_CHARGE


@<TRIPOS>ATOM
      1 O1          0.9114   -0.4990    1.4380 O.2       1 <1>        -0.4549
      2 C2          2.0197   -0.0771    1.1792 C.2       1 <1>         0.0866
      3 C3          2.4707    1.3040    1.6195 C.3       1 <1>         0.0708
      4 C4          3.9309    1.1802    2.0785 C.3       1 <1>         0.0642
      5 H5          3.9901    0.4913    2.9212 H         1 <1>         0.1405
      6 C6          4.4427    2.5339    2.4985 C.ar      1 <1>        -0.0588
      7 C7          4.8509    3.4439    1.5418 C.ar      1 <1>        -0.0786
      8 C8          5.3217    4.6873    1.9220 C.ar      1 <1>        -0.0561
      9 C9          5.3845    5.0232    3.2645 C.ar      1 <1>        -0.0040
     10 O10         5.8470    6.2457    3.6402 O.3       1 <1>        -0.4307
     11 C11         4.9730    4.1068    4.2280 C.ar      1 <1>        -0.0022
     12 O12         5.0324    4.4321    5.5471 O.3       1 <1>        -0.4313
     13 C13         4.4975    2.8650    3.8400 C.ar      1 <1>        -0.0491
     14 O14         4.7243    0.6837    1.0006 O.3       1 <1>        -0.3855
     15 C15         4.3335   -0.4522    0.3761 C.ar      1 <1>         0.0330
     16 C16         5.2574   -1.2100   -0.3209 C.ar      1 <1>        -0.0094
     17 C17         4.8607   -2.3725   -0.9701 C.ar      1 <1>        -0.0128
     18 O18         5.7762   -3.1076   -1.6499 O.3       1 <1>        -0.4242
     19 C19         3.5365   -2.7903   -0.9299 C.ar      1 <1>        -0.0189
     20 C20         2.5965   -2.0490   -0.2360 C.ar      1 <1>        -0.0008
     21 O21         1.3026   -2.4527   -0.1953 O.3       1 <1>        -0.4187
     22 C22         2.9942   -0.8781    0.4302 C.ar      1 <1>         0.0588
     23 H23         2.4020    2.0008    0.7840 H         1 <1>         0.1104
     24 H24         1.8502    1.6514    2.4455 H         1 <1>         0.1104
     25 H25         4.8024    3.1833    0.4947 H         1 <1>         0.1392
     26 H26         5.6408    5.3964    1.1725 H         1 <1>         0.1363
     27 H27         5.1598    6.9228    3.7063 H         1 <1>         0.3567
     28 H28         4.2287    4.8498    5.8858 H         1 <1>         0.3565
     29 H29         4.1776    2.1522    4.5856 H         1 <1>         0.1411
     30 H30         6.2902   -0.8967   -0.3609 H         1 <1>         0.1440
     31 H31         6.2105   -3.7867   -1.1157 H         1 <1>         0.3676
     32 H32         3.2403   -3.6946   -1.4406 H         1 <1>         0.1388
     33 H33         1.0964   -3.0383    0.5461 H         1 <1>         0.3710
@<TRIPOS>BOND
     1    1    2 2
     2    2   22 1
     3    2    3 1
     4    3    4 1
     5    3   23 1
     6    3   24 1
     7    4    5 1
     8    4    6 1
     9    4   14 1
    10    6   13 ar
    11    6    7 ar
    12    7    8 ar
    13    7   25 1
    14    8    9 ar
    15    8   26 1
    16    9   10 1
    17    9   11 ar
    18   10   27 1
    19   11   12 1
    20   11   13 ar
    21   12   28 1
    22   13   29 1
    23   14   15 1
    24   15   22 ar
    25   15   16 ar
    26   16   17 ar
    27   16   30 1
    28   17   18 1
    29   17   19 ar
    30   18   31 1
    31   19   20 ar
    32   19   32 1
    33   20   21 1
    34   20   22 ar
    35   21   33 1
@<TRIPOS>Similarity
1.0216
@<TRIPOS>ShapeSim
0.6186
@<TRIPOS>PharmSim
0.4030
# END
# Name:		CCCN(CCC)S(=O)(=O)C1=CC=C(C=C1)C(=O)O
# Created and modified by SHAFTS on Thu Mar 11 05:28:35 2021

# 

@<TRIPOS>MOLECULE
CCCN(CCC)S(=O)(=O)C1=CC=C(C=C1)C(=O)O
   37    37     0
SMALL
USER_CHARGE


@<TRIPOS>ATOM
      1 C1          1.0961    4.3325   -0.9481 C.3       1 <1>        -0.1500
      2 C2          0.8287    2.8431   -1.1742 C.3       1 <1>        -0.1500
      3 C3          1.0927    2.0751    0.1224 C.3       1 <1>         0.1200
      4 N4          0.8367    0.6489   -0.0940 N.am      1 <1>        -1.0000
      5 C5          1.8871   -0.2077   -0.6501 C.3       1 <1>         0.1200
      6 C6          2.7999   -0.6929    0.4777 C.3       1 <1>        -0.1400
      7 C7          3.8968   -1.5875   -0.1031 C.3       1 <1>        -0.1500
      8 S8         -0.6399    0.0051    0.2900 S.o2      1 <1>         2.6900
      9 O9         -0.4284   -1.3834    0.5055 O.2       1 <1>        -0.5000
     10 O10        -1.2109    0.8651    1.2666 O.2       1 <1>        -0.5000
     11 C11        -1.6553    0.1371   -1.1439 C.ar      1 <1>        -0.6900
     12 C12        -2.4236    1.2710   -1.3416 C.ar      1 <1>        -0.0400
     13 C13        -3.2207    1.3813   -2.4617 C.ar      1 <1>        -0.1100
     14 C14        -3.2514    0.3447   -3.3979 C.ar      1 <1>        -0.0700
     15 C15        -4.1013    0.4554   -4.5989 C.2       1 <1>         0.5100
     16 O16        -4.7810    1.4563   -4.7767 O.co2     1 <1>        -0.5000
     17 O17        -4.1259   -0.4537   -5.4164 O.co2     1 <1>        -0.5000
     18 C18        -2.4731   -0.7971   -3.1917 C.ar      1 <1>        -0.1100
     19 C19        -1.6763   -0.8912   -2.0698 C.ar      1 <1>        -0.0400
     20 H20         0.9080    4.8798   -1.8718 H         1 <1>         0.0600
     21 H21         0.4366    4.7051   -0.1643 H         1 <1>         0.0600
     22 H22         2.1341    4.4737   -0.6470 H         1 <1>         0.0500
     23 H23        -0.2093    2.7019   -1.4752 H         1 <1>         0.0700
     24 H24         1.4883    2.4705   -1.9580 H         1 <1>         0.0700
     25 H25         2.1308    2.2163    0.4235 H         1 <1>         0.0800
     26 H26         0.4332    2.4477    0.9062 H         1 <1>         0.0900
     27 H27         1.4321   -1.0662   -1.1441 H         1 <1>         0.0800
     28 H28         2.4731    0.3591   -1.3735 H         1 <1>         0.0800
     29 H29         3.2549    0.1657    0.9716 H         1 <1>         0.0600
     30 H30         2.2138   -1.2598    1.2011 H         1 <1>         0.0700
     31 H31         3.4419   -2.4460   -0.5970 H         1 <1>         0.0600
     32 H32         4.4829   -1.0206   -0.8265 H         1 <1>         0.0500
     33 H33         4.5472   -1.9331    0.7004 H         1 <1>         0.0600
     34 H34        -2.3991    2.0714   -0.6169 H         1 <1>         0.1300
     35 H35        -3.8200    2.2667   -2.6145 H         1 <1>         0.1400
     36 H36        -2.4921   -1.6025   -3.9110 H         1 <1>         0.1400
     37 H37        -1.0742   -1.7731   -1.9091 H         1 <1>         0.1300
@<TRIPOS>BOND
     1    1    2 1
     2    1   20 1
     3    1   21 1
     4    1   22 1
     5    2    3 1
     6    2   23 1
     7    2   24 1
     8    3    4 1
     9    3   25 1
    10    3   26 1
    11    4    5 1
    12    4    8 am
    13    5    6 1
    14    5   27 1
    15    5   28 1
    16    6    7 1
    17    6   29 1
    18    6   30 1
    19    7   31 1
    20    7   32 1
    21    7   33 1
    22    8    9 2
    23    8   10 2
    24    8   11 1
    25   11   19 ar
    26   11   12 ar
    27   12   13 ar
    28   12   34 1
    29   13   14 ar
    30   13   35 1
    31   14   15 1
    32   14   18 ar
    33   15   16 ar
    34   15   17 ar
    35   18   19 ar
    36   18   36 1
    37   19   37 1
@<TRIPOS>Similarity
1.0210
@<TRIPOS>ShapeSim
0.6799
@<TRIPOS>PharmSim
0.3410
# END
# Name:		CN1C=C(C2=C1C=CC(=C2)Br)C3=C(C(=O)NC3=O)C4=COC5=CC=CC=C54
# Created and modified by SHAFTS on Thu Mar 11 05:28:35 2021

# 

@<TRIPOS>MOLECULE
CN1C=C(C2=C1C=CC(=C2)Br)C3=C(C(=O)NC3=O)C4=COC5=CC=CC=C54
   40    44     0
SMALL
USER_CHARGE


@<TRIPOS>ATOM
      1 C1         -1.0116   -2.7711   -3.9552 C.3       1 <1>        -0.0053
      2 N2         -1.2268   -1.9603   -2.7541 N.pl3     1 <1>        -0.3665
      3 C3         -0.6848   -2.2201   -1.5338 C.2       1 <1>        -0.0328
      4 C4         -1.0875   -1.2704   -0.6406 C.2       1 <1>        -0.0127
      5 C5         -0.7233   -1.1902    0.7833 C.2       1 <1>         0.0871
      6 C6          0.4939   -0.7789    1.3125 C.2       1 <1>         0.0840
      7 C7          1.6818   -0.3356    0.5613 C.2       1 <1>        -0.0118
      8 C8          1.8602    0.8613   -0.0608 C.2       1 <1>         0.0394
      9 O9          3.0706    0.8972   -0.6388 O.3       1 <1>        -0.3572
     10 C10         3.7452   -0.2529   -0.4337 C.ar      1 <1>         0.0244
     11 C11         5.0043   -0.6963   -0.8184 C.ar      1 <1>        -0.0533
     12 C12         5.4338   -1.9541   -0.4510 C.ar      1 <1>        -0.0886
     13 C13         4.6202   -2.7873    0.3015 C.ar      1 <1>        -0.0961
     14 C14         3.3672   -2.3651    0.6923 C.ar      1 <1>        -0.0890
     15 C15         2.9263   -1.0953    0.3337 C.ar      1 <1>        -0.0472
     16 C16         0.3566   -0.8760    2.7797 C.2       1 <1>         0.1682
     17 O17         1.2173   -0.5994    3.5915 O.2       1 <1>        -0.4182
     18 N18        -0.8782   -1.3207    3.0677 N.am      1 <1>        -0.2206
     19 C19        -1.5809   -1.5247    1.9406 C.2       1 <1>         0.1709
     20 O20        -2.7264   -1.9245    1.8820 O.2       1 <1>        -0.4174
     21 C21        -1.9581   -0.3405   -1.3815 C.ar      1 <1>        -0.0401
     22 C22        -2.6621    0.8095   -1.0326 C.ar      1 <1>        -0.0620
     23 C23        -3.4070    1.4696   -1.9869 C.ar      1 <1>        -0.0360
     24 Br24       -4.3646    3.0317   -1.5193 Br        1 <1>        -0.1171
     25 C25        -3.4567    0.9927   -3.2893 C.ar      1 <1>        -0.0718
     26 C26        -2.7650   -0.1443   -3.6476 C.ar      1 <1>        -0.0575
     27 C27        -2.0036   -0.8210   -2.7008 C.ar      1 <1>        -0.0375
     28 H28        -0.1374   -2.4014   -4.4912 H         1 <1>         0.1045
     29 H29        -0.8492   -3.8100   -3.6681 H         1 <1>         0.1117
     30 H30        -1.8879   -2.7050   -4.6001 H         1 <1>         0.1117
     31 H31        -0.0348   -3.0521   -1.3064 H         1 <1>         0.2177
     32 H32         1.1362    1.6623   -0.0857 H         1 <1>         0.2481
     33 H33         5.6464   -0.0562   -1.4052 H         1 <1>         0.1347
     34 H34         6.4136   -2.2938   -0.7528 H         1 <1>         0.1356
     35 H35         4.9690   -3.7701    0.5821 H         1 <1>         0.1202
     36 H36         2.7335   -3.0147    1.2779 H         1 <1>         0.1254
     37 H37        -1.2165   -1.4701    3.9644 H         1 <1>         0.3545
     38 H38        -2.6253    1.1822   -0.0196 H         1 <1>         0.1438
     39 H39        -4.0432    1.5174   -4.0291 H         1 <1>         0.1422
     40 H40        -2.8111   -0.5072   -4.6638 H         1 <1>         0.1344
@<TRIPOS>BOND
     1    1    2 1
     2    1   28 1
     3    1   29 1
     4    1   30 1
     5    2   27 1
     6    2    3 1
     7    3    4 2
     8    3   31 1
     9    4    5 1
    10    4   21 1
    11    5   19 1
    12    5    6 2
    13    6    7 1
    14    6   16 1
    15    7   15 1
    16    7    8 2
    17    8    9 1
    18    8   32 1
    19    9   10 1
    20   10   15 ar
    21   10   11 ar
    22   11   12 ar
    23   11   33 1
    24   12   13 ar
    25   12   34 1
    26   13   14 ar
    27   13   35 1
    28   14   15 ar
    29   14   36 1
    30   16   17 2
    31   16   18 am
    32   18   19 am
    33   18   37 1
    34   19   20 2
    35   21   27 ar
    36   21   22 ar
    37   22   23 ar
    38   22   38 1
    39   23   24 1
    40   23   25 ar
    41   25   26 ar
    42   25   39 1
    43   26   27 ar
    44   26   40 1
@<TRIPOS>Similarity
1.0184
@<TRIPOS>ShapeSim
0.6686
@<TRIPOS>PharmSim
0.3497
# END
# Name:		OC1=CC(C2=NC3=C(OC4=C3C=CC=N4)C(N5CCOCC5)=N2)=CC=C1
# Created and modified by SHAFTS on Thu Mar 11 05:28:35 2021

# 

@<TRIPOS>MOLECULE
OC1=CC(C2=NC3=C(OC4=C3C=CC=N4)C(N5CCOCC5)=N2)=CC=C1
   42    46     0
SMALL
USER_CHARGE


@<TRIPOS>ATOM
      1 O1         -2.5377   -1.4143   -4.5172 O.3       1 <1>        -0.4394
      2 C2         -2.5777   -0.5799   -3.4451 C.ar      1 <1>        -0.0294
      3 C3         -3.6988    0.2065   -3.2195 C.ar      1 <1>        -0.0651
      4 C4         -3.7439    1.0568   -2.1302 C.ar      1 <1>        -0.0844
      5 C5         -2.6744    1.1280   -1.2608 C.ar      1 <1>        -0.0596
      6 C6         -1.5447    0.3412   -1.4800 C.ar      1 <1>         0.0159
      7 C7         -0.3940    0.4155   -0.5468 C.ar      1 <1>         0.0586
      8 N8          0.6709   -0.3370   -0.7776 N.ar      1 <1>        -0.3390
      9 C9          1.7182   -0.2933    0.0398 C.ar      1 <1>         0.0406
     10 C10         1.6907    0.5567    1.1525 C.ar      1 <1>         0.1098
     11 O11         2.8532    0.4280    1.8246 O.3       1 <1>        -0.2963
     12 C12         3.6733   -0.4647    1.2300 C.ar      1 <1>         0.1069
     13 C13         3.0254   -0.9673    0.0901 C.ar      1 <1>         0.0369
     14 C14         3.6655   -1.9139   -0.7059 C.ar      1 <1>        -0.0557
     15 C15         4.9336   -2.3276   -0.3363 C.ar      1 <1>        -0.0497
     16 C16         5.5149   -1.7912    0.8003 C.ar      1 <1>        -0.0158
     17 N17         4.8893   -0.8970    1.5365 N.ar      1 <1>        -0.3428
     18 C18         0.5436    1.3346    1.3575 C.ar      1 <1>        -0.0783
     19 N19         0.4594    2.1944    2.4421 N.3       1 <1>         0.3980
     20 C20         0.6670    1.4711    3.7050 C.3       1 <1>        -0.1232
     21 C21         0.6253    2.4650    4.8688 C.3       1 <1>        -0.0076
     22 O22        -0.6205    3.1669    4.8454 O.3       1 <1>        -0.4611
     23 C23        -0.8550    3.8830    3.6298 C.3       1 <1>        -0.0087
     24 C24        -0.8284    2.9035    2.4535 C.3       1 <1>        -0.1218
     25 N25        -0.4590    1.2387    0.4930 N.ar      1 <1>        -0.3472
     26 C26        -1.5017   -0.5187   -2.5747 C.ar      1 <1>        -0.0264
     27 H27        -2.8841   -2.2996   -4.3398 H         1 <1>         0.3537
     28 H28        -4.5383    0.1543   -3.8969 H         1 <1>         0.1299
     29 H29        -4.6184    1.6672   -1.9594 H         1 <1>         0.1321
     30 H30        -2.7126    1.7935   -0.4110 H         1 <1>         0.1433
     31 H31         3.1858   -2.3143   -1.5868 H         1 <1>         0.1653
     32 H32         5.4633   -3.0603   -0.9271 H         1 <1>         0.1405
     33 H33         6.5044   -2.1135    1.0892 H         1 <1>         0.2334
     34 H34        -0.1204    0.7281    3.8326 H         1 <1>         0.0434
     35 H35         1.6370    0.9746    3.6849 H         1 <1>         0.0721
     36 H36         0.7217    1.9260    5.8114 H         1 <1>         0.1333
     37 H37         1.4457    3.1759    4.7698 H         1 <1>         0.1043
     38 H38        -1.8292    4.3697    3.6763 H         1 <1>         0.1312
     39 H39        -0.0778    4.6352    3.4948 H         1 <1>         0.0950
     40 H40        -0.9498    3.4527    1.5198 H         1 <1>         0.0742
     41 H41        -1.6396    2.1835    2.5611 H         1 <1>         0.0527
     42 H42        -0.6288   -1.1303   -2.7488 H         1 <1>         0.1504
@<TRIPOS>BOND
     1    1    2 1
     2    1   27 1
     3    2   26 ar
     4    2    3 ar
     5    3    4 ar
     6    3   28 1
     7    4    5 ar
     8    4   29 1
     9    5    6 ar
    10    5   30 1
    11    6    7 1
    12    6   26 ar
    13    7   25 ar
    14    7    8 ar
    15    8    9 ar
    16    9   13 1
    17    9   10 ar
    18   10   11 1
    19   10   18 ar
    20   11   12 1
    21   12   17 ar
    22   12   13 ar
    23   13   14 ar
    24   14   15 ar
    25   14   31 1
    26   15   16 ar
    27   15   32 1
    28   16   17 ar
    29   16   33 1
    30   18   19 1
    31   18   25 ar
    32   19   24 1
    33   19   20 1
    34   20   21 1
    35   20   34 1
    36   20   35 1
    37   21   22 1
    38   21   36 1
    39   21   37 1
    40   22   23 1
    41   23   24 1
    42   23   38 1
    43   23   39 1
    44   24   40 1
    45   24   41 1
    46   26   42 1
@<TRIPOS>Similarity
1.0176
@<TRIPOS>ShapeSim
0.7063
@<TRIPOS>PharmSim
0.3113
# END
# Name:		C1COCCN1C2=NC(=NC3=C2OC4=C3C=CC=N4)C5=CC(=CC=C5)O
# Created and modified by SHAFTS on Thu Mar 11 05:28:35 2021

# 

@<TRIPOS>MOLECULE
C1COCCN1C2=NC(=NC3=C2OC4=C3C=CC=N4)C5=CC(=CC=C5)O
   42    46     0
SMALL
USER_CHARGE


@<TRIPOS>ATOM
      1 O1         -2.5377   -1.4143   -4.5172 O.3       1 <1>        -0.4394
      2 C2         -2.5777   -0.5799   -3.4451 C.ar      1 <1>        -0.0294
      3 C3         -3.6988    0.2065   -3.2195 C.ar      1 <1>        -0.0651
      4 C4         -3.7439    1.0568   -2.1302 C.ar      1 <1>        -0.0844
      5 C5         -2.6744    1.1280   -1.2608 C.ar      1 <1>        -0.0596
      6 C6         -1.5447    0.3412   -1.4800 C.ar      1 <1>         0.0159
      7 C7         -0.3940    0.4155   -0.5468 C.ar      1 <1>         0.0586
      8 N8          0.6709   -0.3370   -0.7776 N.ar      1 <1>        -0.3390
      9 C9          1.7182   -0.2933    0.0398 C.ar      1 <1>         0.0406
     10 C10         1.6907    0.5567    1.1525 C.ar      1 <1>         0.1098
     11 O11         2.8532    0.4280    1.8246 O.3       1 <1>        -0.2963
     12 C12         3.6733   -0.4647    1.2300 C.ar      1 <1>         0.1069
     13 C13         3.0254   -0.9673    0.0901 C.ar      1 <1>         0.0369
     14 C14         3.6655   -1.9139   -0.7059 C.ar      1 <1>        -0.0557
     15 C15         4.9336   -2.3276   -0.3363 C.ar      1 <1>        -0.0497
     16 C16         5.5149   -1.7912    0.8003 C.ar      1 <1>        -0.0158
     17 N17         4.8893   -0.8970    1.5365 N.ar      1 <1>        -0.3428
     18 C18         0.5436    1.3346    1.3575 C.ar      1 <1>        -0.0783
     19 N19         0.4594    2.1944    2.4421 N.3       1 <1>         0.3980
     20 C20         0.6670    1.4711    3.7050 C.3       1 <1>        -0.1232
     21 C21         0.6253    2.4650    4.8688 C.3       1 <1>        -0.0076
     22 O22        -0.6205    3.1669    4.8454 O.3       1 <1>        -0.4611
     23 C23        -0.8550    3.8830    3.6298 C.3       1 <1>        -0.0087
     24 C24        -0.8284    2.9035    2.4535 C.3       1 <1>        -0.1218
     25 N25        -0.4590    1.2387    0.4930 N.ar      1 <1>        -0.3472
     26 C26        -1.5017   -0.5187   -2.5747 C.ar      1 <1>        -0.0264
     27 H27        -2.8841   -2.2996   -4.3398 H         1 <1>         0.3537
     28 H28        -4.5383    0.1543   -3.8969 H         1 <1>         0.1299
     29 H29        -4.6184    1.6672   -1.9594 H         1 <1>         0.1321
     30 H30        -2.7126    1.7935   -0.4110 H         1 <1>         0.1433
     31 H31         3.1858   -2.3143   -1.5868 H         1 <1>         0.1653
     32 H32         5.4633   -3.0603   -0.9271 H         1 <1>         0.1405
     33 H33         6.5044   -2.1135    1.0892 H         1 <1>         0.2334
     34 H34        -0.1204    0.7281    3.8326 H         1 <1>         0.0434
     35 H35         1.6370    0.9746    3.6849 H         1 <1>         0.0721
     36 H36         0.7217    1.9260    5.8114 H         1 <1>         0.1333
     37 H37         1.4457    3.1759    4.7698 H         1 <1>         0.1043
     38 H38        -1.8292    4.3697    3.6763 H         1 <1>         0.1312
     39 H39        -0.0778    4.6352    3.4948 H         1 <1>         0.0950
     40 H40        -0.9498    3.4527    1.5198 H         1 <1>         0.0742
     41 H41        -1.6396    2.1835    2.5611 H         1 <1>         0.0527
     42 H42        -0.6288   -1.1303   -2.7488 H         1 <1>         0.1504
@<TRIPOS>BOND
     1    1    2 1
     2    1   27 1
     3    2   26 ar
     4    2    3 ar
     5    3    4 ar
     6    3   28 1
     7    4    5 ar
     8    4   29 1
     9    5    6 ar
    10    5   30 1
    11    6    7 1
    12    6   26 ar
    13    7   25 ar
    14    7    8 ar
    15    8    9 ar
    16    9   13 1
    17    9   10 ar
    18   10   11 1
    19   10   18 ar
    20   11   12 1
    21   12   17 ar
    22   12   13 ar
    23   13   14 ar
    24   14   15 ar
    25   14   31 1
    26   15   16 ar
    27   15   32 1
    28   16   17 ar
    29   16   33 1
    30   18   19 1
    31   18   25 ar
    32   19   24 1
    33   19   20 1
    34   20   21 1
    35   20   34 1
    36   20   35 1
    37   21   22 1
    38   21   36 1
    39   21   37 1
    40   22   23 1
    41   23   24 1
    42   23   38 1
    43   23   39 1
    44   24   40 1
    45   24   41 1
    46   26   42 1
@<TRIPOS>Similarity
1.0176
@<TRIPOS>ShapeSim
0.7063
@<TRIPOS>PharmSim
0.3113
# END
# Name:		C1COCCN1C2=NC(=NC3=C2OC4=C3C=CC=N4)C5=CC(=CC=C5)O
# Created and modified by SHAFTS on Thu Mar 11 05:28:35 2021

# 

@<TRIPOS>MOLECULE
C1COCCN1C2=NC(=NC3=C2OC4=C3C=CC=N4)C5=CC(=CC=C5)O
   42    46     0
SMALL
USER_CHARGE


@<TRIPOS>ATOM
      1 O1         -2.5377   -1.4143   -4.5172 O.3       1 <1>        -0.4394
      2 C2         -2.5777   -0.5799   -3.4451 C.ar      1 <1>        -0.0294
      3 C3         -3.6988    0.2065   -3.2195 C.ar      1 <1>        -0.0651
      4 C4         -3.7439    1.0568   -2.1302 C.ar      1 <1>        -0.0844
      5 C5         -2.6744    1.1280   -1.2608 C.ar      1 <1>        -0.0596
      6 C6         -1.5447    0.3412   -1.4800 C.ar      1 <1>         0.0159
      7 C7         -0.3940    0.4155   -0.5468 C.ar      1 <1>         0.0586
      8 N8          0.6709   -0.3370   -0.7776 N.ar      1 <1>        -0.3390
      9 C9          1.7182   -0.2933    0.0398 C.ar      1 <1>         0.0406
     10 C10         1.6907    0.5567    1.1525 C.ar      1 <1>         0.1098
     11 O11         2.8532    0.4280    1.8246 O.3       1 <1>        -0.2963
     12 C12         3.6733   -0.4647    1.2300 C.ar      1 <1>         0.1069
     13 C13         3.0254   -0.9673    0.0901 C.ar      1 <1>         0.0369
     14 C14         3.6655   -1.9139   -0.7059 C.ar      1 <1>        -0.0557
     15 C15         4.9336   -2.3276   -0.3363 C.ar      1 <1>        -0.0497
     16 C16         5.5149   -1.7912    0.8003 C.ar      1 <1>        -0.0158
     17 N17         4.8893   -0.8970    1.5365 N.ar      1 <1>        -0.3428
     18 C18         0.5436    1.3346    1.3575 C.ar      1 <1>        -0.0783
     19 N19         0.4594    2.1944    2.4421 N.3       1 <1>         0.3980
     20 C20         0.6670    1.4711    3.7050 C.3       1 <1>        -0.1232
     21 C21         0.6253    2.4650    4.8688 C.3       1 <1>        -0.0076
     22 O22        -0.6205    3.1669    4.8454 O.3       1 <1>        -0.4611
     23 C23        -0.8550    3.8830    3.6298 C.3       1 <1>        -0.0087
     24 C24        -0.8284    2.9035    2.4535 C.3       1 <1>        -0.1218
     25 N25        -0.4590    1.2387    0.4930 N.ar      1 <1>        -0.3472
     26 C26        -1.5017   -0.5187   -2.5747 C.ar      1 <1>        -0.0264
     27 H27        -2.8841   -2.2996   -4.3398 H         1 <1>         0.3537
     28 H28        -4.5383    0.1543   -3.8969 H         1 <1>         0.1299
     29 H29        -4.6184    1.6672   -1.9594 H         1 <1>         0.1321
     30 H30        -2.7126    1.7935   -0.4110 H         1 <1>         0.1433
     31 H31         3.1858   -2.3143   -1.5868 H         1 <1>         0.1653
     32 H32         5.4633   -3.0603   -0.9271 H         1 <1>         0.1405
     33 H33         6.5044   -2.1135    1.0892 H         1 <1>         0.2334
     34 H34        -0.1204    0.7281    3.8326 H         1 <1>         0.0434
     35 H35         1.6370    0.9746    3.6849 H         1 <1>         0.0721
     36 H36         0.7217    1.9260    5.8114 H         1 <1>         0.1333
     37 H37         1.4457    3.1759    4.7698 H         1 <1>         0.1043
     38 H38        -1.8292    4.3697    3.6763 H         1 <1>         0.1312
     39 H39        -0.0778    4.6352    3.4948 H         1 <1>         0.0950
     40 H40        -0.9498    3.4527    1.5198 H         1 <1>         0.0742
     41 H41        -1.6396    2.1835    2.5611 H         1 <1>         0.0527
     42 H42        -0.6288   -1.1303   -2.7488 H         1 <1>         0.1504
@<TRIPOS>BOND
     1    1    2 1
     2    1   27 1
     3    2   26 ar
     4    2    3 ar
     5    3    4 ar
     6    3   28 1
     7    4    5 ar
     8    4   29 1
     9    5    6 ar
    10    5   30 1
    11    6    7 1
    12    6   26 ar
    13    7   25 ar
    14    7    8 ar
    15    8    9 ar
    16    9   13 1
    17    9   10 ar
    18   10   11 1
    19   10   18 ar
    20   11   12 1
    21   12   17 ar
    22   12   13 ar
    23   13   14 ar
    24   14   15 ar
    25   14   31 1
    26   15   16 ar
    27   15   32 1
    28   16   17 ar
    29   16   33 1
    30   18   19 1
    31   18   25 ar
    32   19   24 1
    33   19   20 1
    34   20   21 1
    35   20   34 1
    36   20   35 1
    37   21   22 1
    38   21   36 1
    39   21   37 1
    40   22   23 1
    41   23   24 1
    42   23   38 1
    43   23   39 1
    44   24   40 1
    45   24   41 1
    46   26   42 1
@<TRIPOS>Similarity
1.0176
@<TRIPOS>ShapeSim
0.7063
@<TRIPOS>PharmSim
0.3113
# END
# Name:		CC1=CC2=NNC(=O)N2C3=C1C=CC(=C3)C4=CC=C(C=C4)CO
# Created and modified by SHAFTS on Thu Mar 11 05:28:35 2021

# 

@<TRIPOS>MOLECULE
CC1=CC2=NNC(=O)N2C3=C1C=CC(=C3)C4=CC=C(C=C4)CO
   38    41     0
SMALL
USER_CHARGE


@<TRIPOS>ATOM
      1 C1          4.1179   -2.4773    0.7298 C.3       1 <1>        -0.0247
      2 C2          3.5418   -1.0858    0.7852 C.2       1 <1>        -0.0647
      3 C3          4.1978   -0.1024    1.4361 C.2       1 <1>        -0.0013
      4 C4          3.6293    1.2466    1.4837 C.2       1 <1>         0.0822
      5 N5          4.0656    2.3510    2.0415 N.2       1 <1>        -0.2939
      6 N6          3.1313    3.3631    1.7850 N.am      1 <1>        -0.2208
      7 C7          2.1327    2.8211    1.0597 C.2       1 <1>         0.1923
      8 O8          1.1434    3.4044    0.6526 O.2       1 <1>        -0.4530
      9 N9          2.4233    1.5180    0.8650 N.am      1 <1>        -0.2133
     10 C10         1.7360    0.5136    0.1903 C.ar      1 <1>         0.0111
     11 C11         0.5271    0.7920   -0.4282 C.ar      1 <1>        -0.0322
     12 C12        -0.1539   -0.2188   -1.1010 C.ar      1 <1>        -0.0610
     13 C13        -1.4471    0.0766   -1.7638 C.ar      1 <1>        -0.0708
     14 C14        -1.9780    1.3649   -1.7191 C.ar      1 <1>        -0.0842
     15 C15        -3.1816    1.6340   -2.3382 C.ar      1 <1>        -0.0889
     16 C16        -3.8611    0.6285   -3.0022 C.ar      1 <1>        -0.0835
     17 C17        -5.1747    0.9290   -3.6768 C.3       1 <1>        -0.0094
     18 O18        -4.9358    1.3326   -5.0265 O.3       1 <1>        -0.4890
     19 C19        -3.3390   -0.6517   -3.0499 C.ar      1 <1>        -0.0889
     20 C20        -2.1336   -0.9314   -2.4390 C.ar      1 <1>        -0.0842
     21 C21         0.3762   -1.5101   -1.1545 C.ar      1 <1>        -0.0748
     22 C22         1.5659   -1.7930   -0.5483 C.ar      1 <1>        -0.0697
     23 C23         2.2652   -0.7862    0.1270 C.ar      1 <1>        -0.0319
     24 H24         4.7589   -2.5704   -0.1470 H         1 <1>         0.0737
     25 H25         4.7040   -2.6640    1.6297 H         1 <1>         0.0665
     26 H26         3.3078   -3.2037    0.6664 H         1 <1>         0.0665
     27 H27         5.1401   -0.3097    1.9212 H         1 <1>         0.1701
     28 H28         3.1920    4.2862    2.0767 H         1 <1>         0.4039
     29 H29         0.1149    1.7893   -0.3880 H         1 <1>         0.1585
     30 H30        -1.4486    2.1505   -1.2006 H         1 <1>         0.1287
     31 H31        -3.5941    2.6316   -2.3039 H         1 <1>         0.1271
     32 H32        -5.7994    0.0358   -3.6697 H         1 <1>         0.0982
     33 H33        -5.6825    1.7317   -3.1420 H         1 <1>         0.0982
     34 H34        -5.7390    1.5423   -5.5224 H         1 <1>         0.3224
     35 H35        -3.8740   -1.4328   -3.5694 H         1 <1>         0.1271
     36 H36        -1.7269   -1.9311   -2.4771 H         1 <1>         0.1287
     37 H37        -0.1584   -2.2889   -1.6780 H         1 <1>         0.1345
     38 H38         1.9699   -2.7936   -0.5932 H         1 <1>         0.1502
@<TRIPOS>BOND
     1    1    2 1
     2    1   24 1
     3    1   25 1
     4    1   26 1
     5    2   23 1
     6    2    3 2
     7    3    4 1
     8    3   27 1
     9    4    9 1
    10    4    5 2
    11    5    6 1
    12    6    7 am
    13    6   28 1
    14    7    8 2
    15    7    9 am
    16    9   10 1
    17   10   23 ar
    18   10   11 ar
    19   11   12 ar
    20   11   29 1
    21   12   13 1
    22   12   21 ar
    23   13   20 ar
    24   13   14 ar
    25   14   15 ar
    26   14   30 1
    27   15   16 ar
    28   15   31 1
    29   16   17 1
    30   16   19 ar
    31   17   18 1
    32   17   32 1
    33   17   33 1
    34   18   34 1
    35   19   20 ar
    36   19   35 1
    37   20   36 1
    38   21   22 ar
    39   21   37 1
    40   22   23 ar
    41   22   38 1
@<TRIPOS>Similarity
1.0171
@<TRIPOS>ShapeSim
0.6929
@<TRIPOS>PharmSim
0.3243
# END
# Name:		CN1C=C(C2=C1C=CC(=C2)I)C3=C(C(=O)NC3=O)C4=COC5=CC=CC=C54
# Created and modified by SHAFTS on Thu Mar 11 05:28:35 2021

# 

@<TRIPOS>MOLECULE
CN1C=C(C2=C1C=CC(=C2)I)C3=C(C(=O)NC3=O)C4=COC5=CC=CC=C54
   40    44     0
SMALL
USER_CHARGE


@<TRIPOS>ATOM
      1 C1         -1.0142   -2.7747   -3.9519 C.3       1 <1>        -0.0053
      2 N2         -1.2281   -1.9622   -2.7516 N.pl3     1 <1>        -0.3665
      3 C3         -0.6862   -2.2212   -1.5312 C.2       1 <1>        -0.0327
      4 C4         -1.0879   -1.2704   -0.6388 C.2       1 <1>        -0.0123
      5 C5         -0.7235   -1.1890    0.7849 C.2       1 <1>         0.0872
      6 C6          0.4941   -0.7782    1.3135 C.2       1 <1>         0.0840
      7 C7          1.6817   -0.3350    0.5619 C.2       1 <1>        -0.0118
      8 C8          1.8602    0.8618   -0.0602 C.2       1 <1>         0.0394
      9 O9          3.0703    0.8974   -0.6387 O.3       1 <1>        -0.3572
     10 C10         3.7447   -0.2529   -0.4341 C.ar      1 <1>         0.0244
     11 C11         5.0037   -0.6965   -0.8191 C.ar      1 <1>        -0.0533
     12 C12         5.4332   -1.9543   -0.4517 C.ar      1 <1>        -0.0886
     13 C13         4.6196   -2.7873    0.3011 C.ar      1 <1>        -0.0961
     14 C14         3.3668   -2.3650    0.6922 C.ar      1 <1>        -0.0890
     15 C15         2.9259   -1.0952    0.3335 C.ar      1 <1>        -0.0472
     16 C16         0.3573   -0.8746    2.7809 C.2       1 <1>         0.1682
     17 O17         1.2182   -0.5981    3.5923 O.2       1 <1>        -0.4182
     18 N18        -0.8778   -1.3184    3.0694 N.am      1 <1>        -0.2206
     19 C19        -1.5813   -1.5218    1.9427 C.2       1 <1>         0.1709
     20 O20        -2.7270   -1.9211    1.8846 O.2       1 <1>        -0.4174
     21 C21        -1.9579   -0.3405   -1.3806 C.ar      1 <1>        -0.0389
     22 C22        -2.6611    0.8104   -1.0329 C.ar      1 <1>        -0.0616
     23 C23        -3.4053    1.4700   -1.9875 C.ar      1 <1>        -0.0388
     24 I24        -4.4653    3.2016   -1.4709 I         1 <1>        -0.1068
     25 C25        -3.4552    0.9923   -3.2895 C.ar      1 <1>        -0.0751
     26 C26        -2.7645   -0.1456   -3.6469 C.ar      1 <1>        -0.0582
     27 C27        -2.0033   -0.8219   -2.6996 C.ar      1 <1>        -0.0372
     28 H28        -0.1397   -2.4069   -4.4885 H         1 <1>         0.1045
     29 H29        -0.8531   -3.8135   -3.6635 H         1 <1>         0.1117
     30 H30        -1.8906   -2.7083   -4.5965 H         1 <1>         0.1117
     31 H31        -0.0363   -3.0533   -1.3030 H         1 <1>         0.2177
     32 H32         1.1363    1.6630   -0.0849 H         1 <1>         0.2481
     33 H33         5.6456   -0.0565   -1.4062 H         1 <1>         0.1347
     34 H34         6.4128   -2.2940   -0.7537 H         1 <1>         0.1356
     35 H35         4.9683   -3.7702    0.5816 H         1 <1>         0.1202
     36 H36         2.7332   -3.0144    1.2780 H         1 <1>         0.1254
     37 H37        -1.2158   -1.4673    3.9664 H         1 <1>         0.3545
     38 H38        -2.6238    1.1840   -0.0202 H         1 <1>         0.1459
     39 H39        -4.0411    1.5170   -4.0296 H         1 <1>         0.1341
     40 H40        -2.8104   -0.5090   -4.6629 H         1 <1>         0.1344
@<TRIPOS>BOND
     1    1    2 1
     2    1   28 1
     3    1   29 1
     4    1   30 1
     5    2   27 1
     6    2    3 1
     7    3    4 2
     8    3   31 1
     9    4    5 1
    10    4   21 1
    11    5   19 1
    12    5    6 2
    13    6    7 1
    14    6   16 1
    15    7   15 1
    16    7    8 2
    17    8    9 1
    18    8   32 1
    19    9   10 1
    20   10   15 ar
    21   10   11 ar
    22   11   12 ar
    23   11   33 1
    24   12   13 ar
    25   12   34 1
    26   13   14 ar
    27   13   35 1
    28   14   15 ar
    29   14   36 1
    30   16   17 2
    31   16   18 am
    32   18   19 am
    33   18   37 1
    34   19   20 2
    35   21   27 ar
    36   21   22 ar
    37   22   23 ar
    38   22   38 1
    39   23   24 1
    40   23   25 ar
    41   25   26 ar
    42   25   39 1
    43   26   27 ar
    44   26   40 1
@<TRIPOS>Similarity
1.0165
@<TRIPOS>ShapeSim
0.6668
@<TRIPOS>PharmSim
0.3497
# END
# Name:		O=C(CNC(C)=O)N1[C@@H]2CC[C@H]1C3=CC(NC4=NC(NC5CCC5)=C(C(F)(F)F)C=N4)=CC=C32
# Created and modified by SHAFTS on Thu Mar 11 05:28:35 2021

# 

@<TRIPOS>MOLECULE
O=C(CNC(C)=O)N1[C@@H]2CC[C@H]1C3=CC(NC4=NC(NC5CCC5)=C(C(F)(F)F)C=N4)=CC=C32
   59    63     0
SMALL
USER_CHARGE


@<TRIPOS>ATOM
      1 C1          8.8056    1.9322    5.0986 C.3       1 <1>         0.0476
      2 C2          8.0811    1.7473    3.7902 C.2       1 <1>         0.0594
      3 O3          8.3113    2.4899    2.8594 O.2       1 <1>        -0.5073
      4 N4          7.1775    0.7566    3.6545 N.am      1 <1>        -0.3309
      5 C5          6.4732    0.5768    2.3825 C.3       1 <1>         0.0868
      6 C6          5.5260   -0.5901    2.4934 C.2       1 <1>         0.1154
      7 O7          5.4471   -1.2105    3.5324 O.2       1 <1>        -0.4754
      8 N8          4.7667   -0.9443    1.4376 N.am      1 <1>        -0.3417
      9 C9          3.7466   -2.0378    1.2554 C.3       1 <1>         0.0030
     10 H10         3.5253   -2.6410    2.1359 H         1 <1>         0.1615
     11 C11         4.3608   -2.8042    0.0422 C.3       1 <1>        -0.0250
     12 C12         4.9974   -1.6672   -0.7974 C.3       1 <1>        -0.0273
     13 C13         4.6497   -0.3749    0.0479 C.3       1 <1>        -0.0019
     14 H14         5.2542    0.5073   -0.1623 H         1 <1>         0.1555
     15 C15         3.1406   -0.1994   -0.1031 C.ar      1 <1>        -0.0762
     16 C16         2.3579    0.7060   -0.7784 C.ar      1 <1>        -0.0775
     17 C17         0.9793    0.5982   -0.7208 C.ar      1 <1>        -0.0497
     18 C18         0.3910   -0.4210    0.0171 C.ar      1 <1>        -0.0304
     19 N19        -1.0018   -0.5288    0.0740 N.pl3     1 <1>        -0.2892
     20 C20        -1.7693   -0.1735   -1.0231 C.ar      1 <1>         0.0770
     21 N21        -1.1647    0.1556   -2.1549 N.ar      1 <1>        -0.3366
     22 C22        -1.8647    0.5008   -3.2258 C.ar      1 <1>         0.0093
     23 C23        -3.2438    0.5157   -3.1555 C.ar      1 <1>         0.1180
     24 C24        -4.0723    0.9024   -4.3534 C.3       1 <1>         0.3550
     25 F25        -3.2275    1.2069   -5.4261 F         1 <1>        -0.1902
     26 F26        -4.9082   -0.1627   -4.7057 F         1 <1>        -0.1957
     27 F27        -4.8505    2.0220   -4.0404 F         1 <1>        -0.1957
     28 C28        -3.8533    0.1638   -1.9488 C.ar      1 <1>         0.0293
     29 N29        -5.2337    0.1646   -1.8322 N.pl3     1 <1>        -0.3610
     30 C30        -5.8617   -0.2063   -0.5616 C.3       1 <1>        -0.0415
     31 C31        -6.4747    0.9849    0.1934 C.3       1 <1>        -0.0550
     32 C32        -7.7707    0.7123   -0.5880 C.3       1 <1>        -0.0661
     33 C33        -7.2941   -0.7441   -0.7164 C.3       1 <1>        -0.0535
     34 N34        -3.0897   -0.1767   -0.9159 N.ar      1 <1>        -0.3063
     35 C35         1.1885   -1.3352    0.6997 C.ar      1 <1>        -0.0545
     36 C36         2.5788   -1.2349    0.6878 C.ar      1 <1>        -0.0692
     37 H37         9.4907    2.7762    5.0184 H         1 <1>         0.0956
     38 H38         8.0819    2.1256    5.8904 H         1 <1>         0.0884
     39 H39         9.3683    1.0286    5.3332 H         1 <1>         0.0884
     40 H40         6.9935    0.1626    4.3989 H         1 <1>         0.3054
     41 H41         5.9106    1.4804    2.1478 H         1 <1>         0.1501
     42 H42         7.1968    0.3834    1.5907 H         1 <1>         0.1501
     43 H43         5.1217   -3.5097    0.3764 H         1 <1>         0.0652
     44 H44         3.5830   -3.3144   -0.5259 H         1 <1>         0.0724
     45 H45         6.0751   -1.8065   -0.8815 H         1 <1>         0.0644
     46 H46         4.5363   -1.6111   -1.7835 H         1 <1>         0.0715
     47 H47         2.8165    1.4982   -1.3514 H         1 <1>         0.1341
     48 H48         0.3602    1.3077   -1.2498 H         1 <1>         0.1467
     49 H49        -1.4306   -0.8526    0.8815 H         1 <1>         0.3512
     50 H50        -1.3621    0.7678   -4.1436 H         1 <1>         0.2522
     51 H51        -5.7844    0.4108   -2.5918 H         1 <1>         0.3124
     52 H52        -5.2234   -0.8361    0.0581 H         1 <1>         0.1211
     53 H53        -6.5689    0.8198    1.2667 H         1 <1>         0.0623
     54 H54        -6.0112    1.9411   -0.0495 H         1 <1>         0.0480
     55 H55        -8.6740    0.8249    0.0116 H         1 <1>         0.0393
     56 H56        -7.8253    1.2394   -1.5405 H         1 <1>         0.0464
     57 H57        -7.4922   -1.1838   -1.6939 H         1 <1>         0.0484
     58 H58        -7.6124   -1.3820    0.1082 H         1 <1>         0.0698
     59 H59         0.7351   -2.1289    1.2748 H         1 <1>         0.1262
@<TRIPOS>BOND
     1    1    2 1
     2    1   37 1
     3    1   38 1
     4    1   39 1
     5    2    3 2
     6    2    4 am
     7    4    5 1
     8    4   40 1
     9    5    6 1
    10    5   41 1
    11    5   42 1
    12    6    7 2
    13    6    8 am
    14    8   13 1
    15    8    9 1
    16    9   10 1
    17    9   36 1
    18    9   11 1
    19   11   12 1
    20   11   43 1
    21   11   44 1
    22   12   13 1
    23   12   45 1
    24   12   46 1
    25   13   14 1
    26   13   15 1
    27   15   36 ar
    28   15   16 ar
    29   16   17 ar
    30   16   47 1
    31   17   18 ar
    32   17   48 1
    33   18   19 1
    34   18   35 ar
    35   19   20 1
    36   19   49 1
    37   20   34 ar
    38   20   21 ar
    39   21   22 ar
    40   22   23 ar
    41   22   50 1
    42   23   24 1
    43   23   28 ar
    44   24   25 1
    45   24   26 1
    46   24   27 1
    47   28   29 1
    48   28   34 ar
    49   29   30 1
    50   29   51 1
    51   30   33 1
    52   30   31 1
    53   30   52 1
    54   31   32 1
    55   31   53 1
    56   31   54 1
    57   32   33 1
    58   32   55 1
    59   32   56 1
    60   33   57 1
    61   33   58 1
    62   35   36 ar
    63   35   59 1
@<TRIPOS>Similarity
1.0146
@<TRIPOS>ShapeSim
0.5961
@<TRIPOS>PharmSim
0.4185
# END
# Name:		O=C(O)[C@@H](OCC)CC1=CC=C(OCCC2=CC=C(OS(=O)(C)=O)C=C2)C=C1
# Created and modified by SHAFTS on Thu Mar 11 05:28:35 2021

# 

@<TRIPOS>MOLECULE
O=C(O)[C@@H](OCC)CC1=CC=C(OCCC2=CC=C(OS(=O)(C)=O)C=C2)C=C1
   51    52     0
SMALL
USER_CHARGE


@<TRIPOS>ATOM
      1 C1         -3.1862   -4.2594   -5.5330 C.3       1 <1>        -0.1400
      2 C2         -4.2880   -3.2851   -5.1112 C.3       1 <1>         0.0700
      3 O3         -3.9205   -1.9572   -5.4905 O.3       1 <1>        -0.3700
      4 C4         -4.8868   -0.9644   -5.1406 C.3       1 <1>         0.0300
      5 H5         -5.4193   -1.2763   -4.2421 H         1 <1>         0.0500
      6 C6         -4.1787    0.3661   -4.8777 C.3       1 <1>        -0.0600
      7 C7         -3.2894    0.2316   -3.6684 C.ar      1 <1>        -0.1000
      8 C8         -3.7901    0.5075   -2.4095 C.ar      1 <1>        -0.0800
      9 C9         -2.9770    0.3849   -1.2993 C.ar      1 <1>        -0.1500
     10 C10        -1.6572   -0.0159   -1.4486 C.ar      1 <1>         0.1100
     11 O11        -0.8555   -0.1377   -0.3581 O.3       1 <1>        -0.3200
     12 C12         0.4919   -0.5548   -0.5868 C.3       1 <1>         0.0600
     13 C13         1.2349   -0.6342    0.7484 C.3       1 <1>        -0.0800
     14 C14         2.6559   -1.0742    0.5071 C.ar      1 <1>        -0.0600
     15 C15         2.9714   -2.4203    0.5088 C.ar      1 <1>        -0.0900
     16 C16         4.2733   -2.8261    0.2880 C.ar      1 <1>        -0.0800
     17 C17         5.2645   -1.8816    0.0638 C.ar      1 <1>         0.0600
     18 O18         6.5458   -2.2784   -0.1542 O.3       1 <1>        -0.6600
     19 S19         6.8783   -2.5198   -1.6197 S.o2      1 <1>         2.6000
     20 C20         7.0270   -0.8573   -2.3300 C.3       1 <1>        -0.7000
     21 O21         8.1443   -3.1645   -1.5902 O.2       1 <1>        -0.5000
     22 O22         5.7311   -3.1815   -2.1350 O.2       1 <1>        -0.5000
     23 C23         4.9452   -0.5316    0.0620 C.ar      1 <1>        -0.1300
     24 C24         3.6410   -0.1311    0.2786 C.ar      1 <1>        -0.1000
     25 C25        -1.1574   -0.2926   -2.7128 C.ar      1 <1>        -0.2100
     26 C26        -1.9760   -0.1731   -3.8192 C.ar      1 <1>        -0.0600
     27 C27        -5.8671   -0.7965   -6.2727 C.2       1 <1>         0.4800
     28 O28        -6.8299   -0.0600   -6.1413 O.co2     1 <1>        -0.5000
     29 O29        -5.6976   -1.3973   -7.3201 O.co2     1 <1>        -0.5000
     30 H30        -3.4665   -5.2722   -5.2437 H         1 <1>         0.0600
     31 H31        -3.0549   -4.2134   -6.6141 H         1 <1>         0.0600
     32 H32        -2.2523   -3.9865   -5.0417 H         1 <1>         0.0500
     33 H33        -5.2220   -3.5580   -5.6026 H         1 <1>         0.0500
     34 H34        -4.4193   -3.3311   -4.0301 H         1 <1>         0.0300
     35 H35        -3.5748    0.6339   -5.7447 H         1 <1>         0.0700
     36 H36        -4.9212    1.1437   -4.6979 H         1 <1>         0.0900
     37 H37        -4.8176    0.8196   -2.2939 H         1 <1>         0.1300
     38 H38        -3.3683    0.6013   -0.3163 H         1 <1>         0.1300
     39 H39         0.4930   -1.5358   -1.0620 H         1 <1>         0.0700
     40 H40         0.9895    0.1645   -1.2372 H         1 <1>         0.0600
     41 H41         1.2339    0.3468    1.2236 H         1 <1>         0.0900
     42 H42         0.7373   -1.3535    1.3988 H         1 <1>         0.0900
     43 H43         2.1995   -3.1551    0.6835 H         1 <1>         0.1400
     44 H44         4.5194   -3.8778    0.2902 H         1 <1>         0.1400
     45 H45         7.8199   -0.3126   -1.8172 H         1 <1>         0.1300
     46 H46         7.2669   -0.9352   -3.3904 H         1 <1>         0.1400
     47 H47         6.0836   -0.3249   -2.2091 H         1 <1>         0.1300
     48 H48         5.7152    0.2055   -0.1119 H         1 <1>         0.1400
     49 H49         3.3919    0.9198    0.2771 H         1 <1>         0.1400
     50 H50        -0.1304   -0.6045   -2.8315 H         1 <1>         0.1200
     51 H51        -1.5875   -0.3888   -4.8035 H         1 <1>         0.1300
@<TRIPOS>BOND
     1    1    2 1
     2    1   30 1
     3    1   31 1
     4    1   32 1
     5    2    3 1
     6    2   33 1
     7    2   34 1
     8    3    4 1
     9    4    5 1
    10    4    6 1
    11    4   27 1
    12    6    7 1
    13    6   35 1
    14    6   36 1
    15    7   26 ar
    16    7    8 ar
    17    8    9 ar
    18    8   37 1
    19    9   10 ar
    20    9   38 1
    21   10   11 1
    22   10   25 ar
    23   11   12 1
    24   12   13 1
    25   12   39 1
    26   12   40 1
    27   13   14 1
    28   13   41 1
    29   13   42 1
    30   14   24 ar
    31   14   15 ar
    32   15   16 ar
    33   15   43 1
    34   16   17 ar
    35   16   44 1
    36   17   18 1
    37   17   23 ar
    38   18   19 1
    39   19   20 1
    40   19   21 2
    41   19   22 2
    42   20   45 1
    43   20   46 1
    44   20   47 1
    45   23   24 ar
    46   23   48 1
    47   24   49 1
    48   25   26 ar
    49   25   50 1
    50   26   51 1
    51   27   28 ar
    52   27   29 ar
@<TRIPOS>Similarity
1.0127
@<TRIPOS>ShapeSim
0.6595
@<TRIPOS>PharmSim
0.3532
# END
# Name:		CCOC(=O)C1=CC2=NNC(=O)N2C3=C1C=CC(=C3)Br
# Created and modified by SHAFTS on Thu Mar 11 05:28:35 2021

# 

@<TRIPOS>MOLECULE
CCOC(=O)C1=CC2=NNC(=O)N2C3=C1C=CC(=C3)Br
   30    32     0
SMALL
USER_CHARGE


@<TRIPOS>ATOM
      1 C1         -1.2007   -3.6386   -0.6751 C.3       1 <1>        -0.0333
      2 C2         -1.0274   -2.4221    0.2364 C.3       1 <1>         0.0287
      3 O3          0.3529   -1.9739    0.1882 O.3       1 <1>        -0.3484
      4 C4          0.6753   -0.9029    0.9411 C.2       1 <1>         0.2036
      5 O5         -0.1742   -0.3587    1.6194 O.2       1 <1>        -0.4312
      6 C6          2.0554   -0.3928    0.9420 C.2       1 <1>         0.0962
      7 C7          2.3683    0.7613    1.6022 C.2       1 <1>         0.0500
      8 C8          3.6985    1.2490    1.5998 C.2       1 <1>         0.1037
      9 N9          4.2224    2.3187    2.1563 N.2       1 <1>        -0.2747
     10 N10         5.5889    2.3408    1.8497 N.am      1 <1>        -0.2090
     11 C11         5.8561    1.2552    1.0973 C.2       1 <1>         0.1984
     12 O12         6.9444    0.9458    0.6460 O.2       1 <1>        -0.4464
     13 N13         4.7041    0.5711    0.9331 N.am      1 <1>        -0.2087
     14 C14         4.4303   -0.6104    0.2475 C.ar      1 <1>         0.0182
     15 C15         5.4410   -1.2878   -0.4194 C.ar      1 <1>        -0.0259
     16 C16         5.1558   -2.4589   -1.0952 C.ar      1 <1>        -0.0186
     17 Br17        6.5367   -3.3786   -2.0027 Br        1 <1>        -0.0851
     18 C18         3.8655   -2.9649   -1.1128 C.ar      1 <1>        -0.0643
     19 C19         2.8494   -2.3035   -0.4549 C.ar      1 <1>        -0.0550
     20 C20         3.1259   -1.1238    0.2340 C.ar      1 <1>         0.0057
     21 H21        -0.9429   -3.3655   -1.6984 H         1 <1>         0.0493
     22 H22        -0.5458   -4.4419   -0.3375 H         1 <1>         0.0493
     23 H23        -2.2369   -3.9750   -0.6390 H         1 <1>         0.0564
     24 H24        -1.6822   -1.6188   -0.1013 H         1 <1>         0.1087
     25 H25        -1.2852   -2.6951    1.2596 H         1 <1>         0.1087
     26 H26         1.5977    1.3050    2.1284 H         1 <1>         0.2116
     27 H27         6.2274    3.0156    2.1283 H         1 <1>         0.4166
     28 H28         6.4490   -0.9002   -0.4104 H         1 <1>         0.1622
     29 H29         3.6544   -3.8810   -1.6444 H         1 <1>         0.1463
     30 H30         1.8450   -2.7000   -0.4702 H         1 <1>         0.1772
@<TRIPOS>BOND
     1    1    2 1
     2    1   21 1
     3    1   22 1
     4    1   23 1
     5    2    3 1
     6    2   24 1
     7    2   25 1
     8    3    4 1
     9    4    5 2
    10    4    6 1
    11    6   20 1
    12    6    7 2
    13    7    8 1
    14    7   26 1
    15    8   13 1
    16    8    9 2
    17    9   10 1
    18   10   11 am
    19   10   27 1
    20   11   12 2
    21   11   13 am
    22   13   14 1
    23   14   20 ar
    24   14   15 ar
    25   15   16 ar
    26   15   28 1
    27   16   17 1
    28   16   18 ar
    29   18   19 ar
    30   18   29 1
    31   19   20 ar
    32   19   30 1
@<TRIPOS>Similarity
1.0125
@<TRIPOS>ShapeSim
0.6905
@<TRIPOS>PharmSim
0.3220
# END
# Name:		ClC1=C(C=C(C=C1)[N+]([O-])=O)C(NC2=CC=NC=C2)=O
# Created and modified by SHAFTS on Thu Mar 11 05:28:35 2021

# 

@<TRIPOS>MOLECULE
ClC1=C(C=C(C=C1)[N+]([O-])=O)C(NC2=CC=NC=C2)=O
   27    28     0
SMALL
USER_CHARGE


@<TRIPOS>ATOM
      1 O1         -0.1142   -1.5591   -1.3480 O.2       1 <1>        -0.4461
      2 C2          0.1740   -0.4737   -0.8826 C.2       1 <1>         0.1377
      3 N3         -0.6656    0.5695   -1.0353 N.am      1 <1>        -0.3003
      4 C4         -1.8172    0.4302   -1.8096 C.ar      1 <1>        -0.0420
      5 C5         -2.5217   -0.7726   -1.8335 C.ar      1 <1>        -0.0322
      6 C6         -3.6563   -0.8694   -2.6119 C.ar      1 <1>        -0.0319
      7 N7         -4.0755    0.1572   -3.3274 N.ar      1 <1>        -0.4029
      8 C8         -3.4366    1.3119   -3.3313 C.ar      1 <1>        -0.0368
      9 C9         -2.2970    1.4920   -2.5752 C.ar      1 <1>        -0.0402
     10 C10         1.4417   -0.2995   -0.1444 C.ar      1 <1>         0.0782
     11 C11         1.7733    0.9440    0.3964 C.ar      1 <1>        -0.0033
     12 C12         2.9585    1.0998    1.0845 C.ar      1 <1>         0.0943
     13 N13         3.3108    2.4179    1.6588 N.pl3     1 <1>         0.0127
     14 O14         2.5545    3.3629    1.5233 O.2       1 <1>        -0.2315
     15 O15         4.3570    2.5572    2.2667 O.2       1 <1>        -0.2260
     16 C16         3.8190    0.0272    1.2400 C.ar      1 <1>        -0.0247
     17 C17         3.4981   -1.2082    0.7073 C.ar      1 <1>        -0.0290
     18 C18         2.3121   -1.3804    0.0208 C.ar      1 <1>         0.0555
     19 Cl19        1.9101   -2.9316   -0.6467 Cl        1 <1>        -0.0706
     20 H20        -0.4690    1.4172   -0.6066 H         1 <1>         0.3240
     21 H21        -2.1837   -1.6168   -1.2509 H         1 <1>         0.1458
     22 H22        -4.2084   -1.7973   -2.6366 H         1 <1>         0.2053
     23 H23        -3.8127    2.1274   -3.9312 H         1 <1>         0.2039
     24 H24        -1.7790    2.4397   -2.5826 H         1 <1>         0.1306
     25 H25         1.1033    1.7825    0.2759 H         1 <1>         0.1784
     26 H26         4.7457    0.1555    1.7794 H         1 <1>         0.1845
     27 H27         4.1742   -2.0411    0.8323 H         1 <1>         0.1667
@<TRIPOS>BOND
     1    1    2 2
     2    2    3 am
     3    2   10 1
     4    3    4 1
     5    3   20 1
     6    4    9 ar
     7    4    5 ar
     8    5    6 ar
     9    5   21 1
    10    6    7 ar
    11    6   22 1
    12    7    8 ar
    13    8    9 ar
    14    8   23 1
    15    9   24 1
    16   10   18 ar
    17   10   11 ar
    18   11   12 ar
    19   11   25 1
    20   12   13 1
    21   12   16 ar
    22   13   14 2
    23   13   15 2
    24   16   17 ar
    25   16   26 1
    26   17   18 ar
    27   17   27 1
    28   18   19 1
@<TRIPOS>Similarity
1.0122
@<TRIPOS>ShapeSim
0.7006
@<TRIPOS>PharmSim
0.3116
# END
# Name:		C1=CC=C(C(=C1)C2=C(C(=O)NC2=O)NC3=CC(=C(C=C3)Cl)C(=O)O)Cl
# Created and modified by SHAFTS on Thu Mar 11 05:28:35 2021

# 

@<TRIPOS>MOLECULE
C1=CC=C(C(=C1)C2=C(C(=O)NC2=O)NC3=CC(=C(C=C3)Cl)C(=O)O)Cl
   34    36     0
SMALL
USER_CHARGE


@<TRIPOS>ATOM
      1 O1          4.1072   -4.0160   -1.8577 O.co2     1 <1>        -0.5000
      2 C2          4.6016   -3.0332   -1.3234 C.2       1 <1>         0.5200
      3 O3          5.8122   -2.8630   -1.3569 O.co2     1 <1>        -0.5000
      4 C4          3.7374   -2.0502   -0.6442 C.ar      1 <1>        -0.0900
      5 C5          2.3548   -2.2418   -0.6042 C.ar      1 <1>        -0.1100
      6 C6          1.5494   -1.3130    0.0371 C.ar      1 <1>         0.1600
      7 N7          0.1665   -1.4999    0.0797 N.pl3     1 <1>        -0.6500
      8 C8         -0.6197   -0.6594    0.8390 C.2       1 <1>         0.1700
      9 C9         -1.6614    0.1134    0.3970 C.2       1 <1>        -0.1600
     10 C10        -2.1653    0.2105   -0.9895 C.ar      1 <1>        -0.0100
     11 C11        -2.9315   -0.8232   -1.5312 C.ar      1 <1>        -0.0900
     12 C12        -3.3990   -0.7261   -2.8255 C.ar      1 <1>        -0.1100
     13 C13        -3.1106    0.3925   -3.5871 C.ar      1 <1>        -0.1000
     14 C14        -2.3518    1.4214   -3.0576 C.ar      1 <1>        -0.1100
     15 C15        -1.8818    1.3402   -1.7622 C.ar      1 <1>        -0.0100
     16 Cl16       -0.9301    2.6317   -1.0989 Cl        1 <1>        -0.0600
     17 C17        -2.1814    0.8289    1.5778 C.2       1 <1>         0.5800
     18 O18        -3.1108    1.6113    1.5795 O.2       1 <1>        -0.4600
     19 N19        -1.4562    0.4712    2.6516 N.am      1 <1>        -0.6900
     20 C20        -0.5108   -0.4167    2.2973 C.2       1 <1>         0.5400
     21 O21         0.3003   -0.9261    3.0433 O.2       1 <1>        -0.4300
     22 C22         2.1186   -0.1950    0.6384 C.ar      1 <1>        -0.1500
     23 C23         3.4867   -0.0042    0.5997 C.ar      1 <1>        -0.0900
     24 C24         4.3000   -0.9250   -0.0320 C.ar      1 <1>        -0.0300
     25 Cl25        6.0179   -0.6795   -0.0773 Cl        1 <1>        -0.0500
     26 H26         1.9144   -3.1101   -1.0715 H         1 <1>         0.1400
     27 H27        -0.2412   -2.2211   -0.4248 H         1 <1>         0.4200
     28 H28        -3.1573   -1.6973   -0.9383 H         1 <1>         0.1300
     29 H29        -3.9915   -1.5255   -3.2454 H         1 <1>         0.1300
     30 H30        -3.4791    0.4628   -4.5998 H         1 <1>         0.1300
     31 H31        -2.1305    2.2917   -3.6576 H         1 <1>         0.1400
     32 H32        -1.5972    0.8024    3.5523 H         1 <1>         0.4300
     33 H33         1.4888    0.5268    1.1371 H         1 <1>         0.1100
     34 H34         3.9220    0.8661    1.0682 H         1 <1>         0.1300
@<TRIPOS>BOND
     1    1    2 ar
     2    2    3 ar
     3    2    4 1
     4    4   24 ar
     5    4    5 ar
     6    5    6 ar
     7    5   26 1
     8    6    7 1
     9    6   22 ar
    10    7    8 1
    11    7   27 1
    12    8   20 1
    13    8    9 2
    14    9   10 1
    15    9   17 1
    16   10   15 ar
    17   10   11 ar
    18   11   12 ar
    19   11   28 1
    20   12   13 ar
    21   12   29 1
    22   13   14 ar
    23   13   30 1
    24   14   15 ar
    25   14   31 1
    26   15   16 1
    27   17   18 2
    28   17   19 am
    29   19   20 am
    30   19   32 1
    31   20   21 2
    32   22   23 ar
    33   22   33 1
    34   23   24 ar
    35   23   34 1
    36   24   25 1
@<TRIPOS>Similarity
1.0119
@<TRIPOS>ShapeSim
0.7238
@<TRIPOS>PharmSim
0.2881
# END
# Name:		C1=CC(=C(C2=C1C(=C3C=CC(=O)C(=C3O2)O)CCC(=O)O)O)O
# Created and modified by SHAFTS on Thu Mar 11 05:28:35 2021

# 

@<TRIPOS>MOLECULE
C1=CC(=C(C2=C1C(=C3C=CC(=O)C(=C3O2)O)CCC(=O)O)O)O
   33    35     0
SMALL
USER_CHARGE


@<TRIPOS>ATOM
      1 O1         -1.6612   -2.0176    0.3240 O.co2     1 <1>        -0.5000
      2 C2         -1.2740   -1.2944   -0.5780 C.2       1 <1>         0.5000
      3 O3         -2.0056   -1.0538   -1.5232 O.co2     1 <1>        -0.5000
      4 C4          0.1067   -0.6931   -0.5218 C.3       1 <1>        -0.1800
      5 C5          0.8080   -1.1452    0.7607 C.3       1 <1>        -0.0800
      6 C6          2.1886   -0.5440    0.8170 C.2       1 <1>         0.1600
      7 C7          2.4242    0.6485    1.5188 C.2       1 <1>        -0.2500
      8 C8          1.3708    1.3060    2.1851 C.2       1 <1>        -0.0100
      9 C9          1.6112    2.4600    2.8621 C.2       1 <1>        -0.2400
     10 C10         2.9015    3.0038    2.9031 C.2       1 <1>         0.3000
     11 O11         3.1234    4.1489    3.5783 O.2       1 <1>        -0.6600
     12 C12         3.9579    2.3696    2.2516 C.2       1 <1>        -0.0500
     13 O13         5.2086    2.9053    2.2978 O.3       1 <1>        -0.4800
     14 C14         3.7313    1.1910    1.5557 C.2       1 <1>         0.1700
     15 O15         4.7489    0.5702    0.9230 O.3       1 <1>        -0.2000
     16 C16         4.5551   -0.5773    0.2396 C.ar      1 <1>         0.2000
     17 C17         5.6189   -1.1954   -0.4018 C.ar      1 <1>        -0.0900
     18 O18         6.8633   -0.6461   -0.3439 O.3       1 <1>        -0.4700
     19 C19         5.4102   -2.3805   -1.1051 C.ar      1 <1>         0.3300
     20 O20         6.4446   -2.9794   -1.7275 O.3       1 <1>        -0.6300
     21 C21         4.1338   -2.9539   -1.1698 C.ar      1 <1>        -0.2400
     22 C22         3.0798   -2.3620   -0.5478 C.ar      1 <1>         0.0000
     23 C23         3.2695   -1.1665    0.1737 C.ar      1 <1>        -0.2600
     24 H24         0.6824   -1.0233   -1.3864 H         1 <1>         0.0700
     25 H25         0.0300    0.3941   -0.5300 H         1 <1>         0.0600
     26 H26         0.2322   -0.8150    1.6254 H         1 <1>         0.0900
     27 H27         0.8846   -2.2325    0.7690 H         1 <1>         0.0900
     28 H28         0.3730    0.8935    2.1576 H         1 <1>         0.1400
     29 H29         0.8017    2.9614    3.3716 H         1 <1>         0.1300
     30 H30         5.2664    3.7261    2.8059 H         1 <1>         0.3900
     31 H31         7.3939   -0.9520    0.4044 H         1 <1>         0.3600
     32 H32         3.9860   -3.8726   -1.7179 H         1 <1>         0.1300
     33 H33         2.0988   -2.8103   -0.6027 H         1 <1>         0.1400
@<TRIPOS>BOND
     1    1    2 ar
     2    2    3 ar
     3    2    4 1
     4    4    5 1
     5    4   24 1
     6    4   25 1
     7    5    6 1
     8    5   26 1
     9    5   27 1
    10    6   23 1
    11    6    7 2
    12    7   14 1
    13    7    8 1
    14    8    9 2
    15    8   28 1
    16    9   10 1
    17    9   29 1
    18   10   11 2
    19   10   12 1
    20   12   13 1
    21   12   14 2
    22   13   30 1
    23   14   15 1
    24   15   16 1
    25   16   23 ar
    26   16   17 ar
    27   17   18 1
    28   17   19 ar
    29   18   31 1
    30   19   20 1
    31   19   21 ar
    32   21   22 ar
    33   21   32 1
    34   22   23 ar
    35   22   33 1
@<TRIPOS>Similarity
1.0116
@<TRIPOS>ShapeSim
0.7284
@<TRIPOS>PharmSim
0.2832
# END
# Name:		NC(C(S1)=CC2=C1C(N3CCC(CCNS(=O)(C)=O)CC3)=NC=N2)=O
# Created and modified by SHAFTS on Thu Mar 11 05:28:35 2021

# 

@<TRIPOS>MOLECULE
NC(C(S1)=CC2=C1C(N3CCC(CCNS(=O)(C)=O)CC3)=NC=N2)=O
   46    48     0
SMALL
USER_CHARGE


@<TRIPOS>ATOM
      1 C1         -5.8907    3.8228   -3.4877 C.3       1 <1>         0.2535
      2 S2         -6.2618    2.3186   -2.5442 S.o2      1 <1>        -0.0770
      3 O3         -6.1081    2.5532   -1.1511 O.2       1 <1>        -0.1000
      4 O4         -7.4251    1.6831   -3.0562 O.2       1 <1>        -0.1000
      5 N5         -5.0291    1.2793   -2.9217 N.am      1 <1>        -0.1810
      6 C6         -3.6556    1.5965   -2.5228 C.3       1 <1>         0.0090
      7 C7         -2.7862    0.3435   -2.6467 C.3       1 <1>        -0.0484
      8 C8         -1.3518    0.6747   -2.2300 C.3       1 <1>        -0.0631
      9 C9         -1.3212    1.0344   -0.7420 C.3       1 <1>        -0.0744
     10 C10         0.1238    1.3052   -0.3172 C.3       1 <1>        -0.1499
     11 N11         0.9409    0.1111   -0.5674 N.3       1 <1>         0.3880
     12 C12         2.2241    0.2758   -0.0748 C.ar      1 <1>        -0.1214
     13 C13         3.1815   -0.7488   -0.2120 C.ar      1 <1>         0.0444
     14 S14         3.0852   -2.3429   -0.9453 S.3       1 <1>        -0.0577
     15 C15         4.7610   -2.6802   -0.5451 C.2       1 <1>         0.1018
     16 C16         5.4642   -3.9338   -0.8667 C.2       1 <1>         0.1083
     17 N17         4.8165   -4.9229   -1.5138 N.am      1 <1>        -0.3388
     18 O18         6.6292   -4.0764   -0.5485 O.2       1 <1>        -0.4673
     19 C19         5.3112   -1.6392    0.0935 C.2       1 <1>        -0.0008
     20 C20         4.4658   -0.5425    0.2994 C.ar      1 <1>         0.0033
     21 N21         4.7210    0.6420    0.9040 N.ar      1 <1>        -0.3568
     22 C22         3.7974    1.5626    1.0065 C.ar      1 <1>         0.0378
     23 N23         2.5750    1.4025    0.5294 N.ar      1 <1>        -0.3741
     24 C24         0.9651   -0.2259   -1.9965 C.3       1 <1>        -0.1504
     25 C25        -0.4548   -0.5426   -2.4713 C.3       1 <1>        -0.0736
     26 H26        -4.9206    4.2139   -3.1812 H         1 <1>         0.1709
     27 H27        -5.8680    3.5878   -4.5519 H         1 <1>         0.1709
     28 H28        -6.6606    4.5705   -3.2971 H         1 <1>         0.1709
     29 H29        -5.2163    0.4606   -3.4070 H         1 <1>         0.3392
     30 H30        -3.2602    2.3784   -3.1711 H         1 <1>         0.0830
     31 H31        -3.6482    1.9432   -1.4894 H         1 <1>         0.0974
     32 H32        -3.1815   -0.4385   -1.9983 H         1 <1>         0.0627
     33 H33        -2.7936   -0.0031   -3.6800 H         1 <1>         0.0555
     34 H34        -0.9875    1.5178   -2.8170 H         1 <1>         0.0590
     35 H35        -1.9242    1.9262   -0.5707 H         1 <1>         0.0592
     36 H36        -1.7227    0.2056   -0.1590 H         1 <1>         0.0592
     37 H37         0.5200    2.1431   -0.8909 H         1 <1>         0.0440
     38 H38         0.1507    1.5477    0.7451 H         1 <1>         0.0655
     39 H39         3.8872   -4.8092   -1.7676 H         1 <1>         0.2746
     40 H40         5.2795   -5.7486   -1.7256 H         1 <1>         0.2825
     41 H41         6.3384   -1.6455    0.4270 H         1 <1>         0.1843
     42 H42         4.0449    2.4927    1.4966 H         1 <1>         0.3047
     43 H43         1.3573    0.6190   -2.5623 H         1 <1>         0.0440
     44 H44         1.6030   -1.0957   -2.1538 H         1 <1>         0.0584
     45 H45        -0.8427   -1.3963   -1.9155 H         1 <1>         0.0614
     46 H46        -0.4388   -0.7774   -3.5356 H         1 <1>         0.0614
@<TRIPOS>BOND
     1    1    2 1
     2    1   26 1
     3    1   27 1
     4    1   28 1
     5    2    3 2
     6    2    4 2
     7    2    5 am
     8    5    6 1
     9    5   29 1
    10    6    7 1
    11    6   30 1
    12    6   31 1
    13    7    8 1
    14    7   32 1
    15    7   33 1
    16    8   25 1
    17    8    9 1
    18    8   34 1
    19    9   10 1
    20    9   35 1
    21    9   36 1
    22   10   11 1
    23   10   37 1
    24   10   38 1
    25   11   12 1
    26   11   24 1
    27   12   23 ar
    28   12   13 ar
    29   13   20 ar
    30   13   14 1
    31   14   15 1
    32   15   16 1
    33   15   19 2
    34   16   17 am
    35   16   18 2
    36   17   39 1
    37   17   40 1
    38   19   20 1
    39   19   41 1
    40   20   21 ar
    41   21   22 ar
    42   22   23 ar
    43   22   42 1
    44   24   25 1
    45   24   43 1
    46   24   44 1
    47   25   45 1
    48   25   46 1
@<TRIPOS>Similarity
1.0098
@<TRIPOS>ShapeSim
0.6528
@<TRIPOS>PharmSim
0.3569
# END
# Name:		CN1C=NC2=C(N=C(N=C21)NCCO)NCC3=CC=CC=C3
# Created and modified by SHAFTS on Thu Mar 11 05:28:35 2021

# 

@<TRIPOS>MOLECULE
CN1C=NC2=C(N=C(N=C21)NCCO)NCC3=CC=CC=C3
   40    42     0
SMALL
USER_CHARGE


@<TRIPOS>ATOM
      1 C1          6.2647   -2.1168    0.6274 C.3       1 <1>         0.0057
      2 N2          4.9495   -1.8198    0.0544 N.pl3     1 <1>        -0.3162
      3 C3          4.4643   -2.2802   -1.1348 C.2       1 <1>         0.0221
      4 N4          3.2639   -1.8195   -1.3329 N.2       1 <1>        -0.3708
      5 C5          2.9029   -1.0362   -0.2867 C.ar      1 <1>         0.0828
      6 C6          1.7545   -0.2944    0.0397 C.ar      1 <1>         0.0513
      7 N7          0.6644   -0.2683   -0.8121 N.pl3     1 <1>        -0.3413
      8 C8         -0.5245    0.5103   -0.4564 C.3       1 <1>        -0.0044
      9 C9         -1.5591    0.3723   -1.5435 C.ar      1 <1>        -0.0866
     10 C10        -1.5715    1.2605   -2.6026 C.ar      1 <1>        -0.0984
     11 C11        -2.5204    1.1339   -3.5997 C.ar      1 <1>        -0.1056
     12 C12        -3.4567    0.1188   -3.5380 C.ar      1 <1>        -0.1075
     13 C13        -3.4437   -0.7701   -2.4794 C.ar      1 <1>        -0.1056
     14 C14        -2.4921   -0.6460   -1.4844 C.ar      1 <1>        -0.0984
     15 N15         1.7382    0.3809    1.1835 N.ar      1 <1>        -0.3025
     16 C16         2.7787    0.3612    2.0065 C.ar      1 <1>         0.0627
     17 N17         2.7114    1.0824    3.1871 N.pl3     1 <1>        -0.3286
     18 C18         1.5055    1.8495    3.5092 C.3       1 <1>        -0.0019
     19 C19         1.6901    2.5476    4.8580 C.3       1 <1>        -0.0094
     20 O20         2.7370    3.5149    4.7543 O.3       1 <1>        -0.4912
     21 N21         3.8785   -0.3240    1.7383 N.ar      1 <1>        -0.3275
     22 C22         3.9777   -1.0323    0.6178 C.ar      1 <1>         0.0444
     23 H23         6.1985   -3.0138    1.2432 H         1 <1>         0.1000
     24 H24         6.9828   -2.2801   -0.1763 H         1 <1>         0.1144
     25 H25         6.5914   -1.2777    1.2416 H         1 <1>         0.1144
     26 H26         4.9979   -2.9309   -1.8118 H         1 <1>         0.2864
     27 H27         0.6874   -0.7655   -1.6446 H         1 <1>         0.3213
     28 H28        -0.9335    0.1399    0.4836 H         1 <1>         0.1205
     29 H29        -0.2518    1.5597   -0.3455 H         1 <1>         0.1205
     30 H30        -0.8400    2.0536   -2.6507 H         1 <1>         0.1177
     31 H31        -2.5305    1.8283   -4.4268 H         1 <1>         0.1128
     32 H32        -4.1986    0.0203   -4.3168 H         1 <1>         0.1142
     33 H33        -4.1754   -1.5630   -2.4310 H         1 <1>         0.1128
     34 H34        -2.4819   -1.3405   -0.6573 H         1 <1>         0.1177
     35 H35         3.4626    1.0795    3.8008 H         1 <1>         0.3241
     36 H36         1.3321    2.5961    2.7343 H         1 <1>         0.1092
     37 H37         0.6500    1.1760    3.5628 H         1 <1>         0.1164
     38 H38         0.7622    3.0454    5.1395 H         1 <1>         0.0987
     39 H39         1.9512    1.8096    5.6164 H         1 <1>         0.0843
     40 H40         2.9094    3.9973    5.5745 H         1 <1>         0.3213
@<TRIPOS>BOND
     1    1    2 1
     2    1   23 1
     3    1   24 1
     4    1   25 1
     5    2   22 1
     6    2    3 1
     7    3    4 2
     8    3   26 1
     9    4    5 1
    10    5   22 ar
    11    5    6 ar
    12    6    7 1
    13    6   15 ar
    14    7    8 1
    15    7   27 1
    16    8    9 1
    17    8   28 1
    18    8   29 1
    19    9   14 ar
    20    9   10 ar
    21   10   11 ar
    22   10   30 1
    23   11   12 ar
    24   11   31 1
    25   12   13 ar
    26   12   32 1
    27   13   14 ar
    28   13   33 1
    29   14   34 1
    30   15   16 ar
    31   16   17 1
    32   16   21 ar
    33   17   18 1
    34   17   35 1
    35   18   19 1
    36   18   36 1
    37   18   37 1
    38   19   20 1
    39   19   38 1
    40   19   39 1
    41   20   40 1
    42   21   22 ar
@<TRIPOS>Similarity
1.0080
@<TRIPOS>ShapeSim
0.7261
@<TRIPOS>PharmSim
0.2820
# END
# Name:		CN(C=N1)C2=C1C(NCC3=CC=CC=C3)=NC(NCCO)=N2
# Created and modified by SHAFTS on Thu Mar 11 05:28:35 2021

# 

@<TRIPOS>MOLECULE
CN(C=N1)C2=C1C(NCC3=CC=CC=C3)=NC(NCCO)=N2
   40    42     0
SMALL
USER_CHARGE


@<TRIPOS>ATOM
      1 C1          6.2647   -2.1168    0.6274 C.3       1 <1>         0.0057
      2 N2          4.9495   -1.8198    0.0544 N.pl3     1 <1>        -0.3162
      3 C3          4.4643   -2.2802   -1.1348 C.2       1 <1>         0.0221
      4 N4          3.2639   -1.8195   -1.3329 N.2       1 <1>        -0.3708
      5 C5          2.9029   -1.0362   -0.2867 C.ar      1 <1>         0.0828
      6 C6          1.7545   -0.2944    0.0397 C.ar      1 <1>         0.0513
      7 N7          0.6644   -0.2683   -0.8121 N.pl3     1 <1>        -0.3413
      8 C8         -0.5245    0.5103   -0.4564 C.3       1 <1>        -0.0044
      9 C9         -1.5591    0.3723   -1.5435 C.ar      1 <1>        -0.0866
     10 C10        -1.5715    1.2605   -2.6026 C.ar      1 <1>        -0.0984
     11 C11        -2.5204    1.1339   -3.5997 C.ar      1 <1>        -0.1056
     12 C12        -3.4567    0.1188   -3.5380 C.ar      1 <1>        -0.1075
     13 C13        -3.4437   -0.7701   -2.4794 C.ar      1 <1>        -0.1056
     14 C14        -2.4921   -0.6460   -1.4844 C.ar      1 <1>        -0.0984
     15 N15         1.7382    0.3809    1.1835 N.ar      1 <1>        -0.3025
     16 C16         2.7787    0.3612    2.0065 C.ar      1 <1>         0.0627
     17 N17         2.7114    1.0824    3.1871 N.pl3     1 <1>        -0.3286
     18 C18         1.5055    1.8495    3.5092 C.3       1 <1>        -0.0019
     19 C19         1.6901    2.5476    4.8580 C.3       1 <1>        -0.0094
     20 O20         2.7370    3.5149    4.7543 O.3       1 <1>        -0.4912
     21 N21         3.8785   -0.3240    1.7383 N.ar      1 <1>        -0.3275
     22 C22         3.9777   -1.0323    0.6178 C.ar      1 <1>         0.0444
     23 H23         6.1985   -3.0138    1.2432 H         1 <1>         0.1000
     24 H24         6.9828   -2.2801   -0.1763 H         1 <1>         0.1144
     25 H25         6.5914   -1.2777    1.2416 H         1 <1>         0.1144
     26 H26         4.9979   -2.9309   -1.8118 H         1 <1>         0.2864
     27 H27         0.6874   -0.7655   -1.6446 H         1 <1>         0.3213
     28 H28        -0.9335    0.1399    0.4836 H         1 <1>         0.1205
     29 H29        -0.2518    1.5597   -0.3455 H         1 <1>         0.1205
     30 H30        -0.8400    2.0536   -2.6507 H         1 <1>         0.1177
     31 H31        -2.5305    1.8283   -4.4268 H         1 <1>         0.1128
     32 H32        -4.1986    0.0203   -4.3168 H         1 <1>         0.1142
     33 H33        -4.1754   -1.5630   -2.4310 H         1 <1>         0.1128
     34 H34        -2.4819   -1.3405   -0.6573 H         1 <1>         0.1177
     35 H35         3.4626    1.0795    3.8008 H         1 <1>         0.3241
     36 H36         1.3321    2.5961    2.7343 H         1 <1>         0.1092
     37 H37         0.6500    1.1760    3.5628 H         1 <1>         0.1164
     38 H38         0.7622    3.0454    5.1395 H         1 <1>         0.0987
     39 H39         1.9512    1.8096    5.6164 H         1 <1>         0.0843
     40 H40         2.9094    3.9973    5.5745 H         1 <1>         0.3213
@<TRIPOS>BOND
     1    1    2 1
     2    1   23 1
     3    1   24 1
     4    1   25 1
     5    2   22 1
     6    2    3 1
     7    3    4 2
     8    3   26 1
     9    4    5 1
    10    5   22 ar
    11    5    6 ar
    12    6    7 1
    13    6   15 ar
    14    7    8 1
    15    7   27 1
    16    8    9 1
    17    8   28 1
    18    8   29 1
    19    9   14 ar
    20    9   10 ar
    21   10   11 ar
    22   10   30 1
    23   11   12 ar
    24   11   31 1
    25   12   13 ar
    26   12   32 1
    27   13   14 ar
    28   13   33 1
    29   14   34 1
    30   15   16 ar
    31   16   17 1
    32   16   21 ar
    33   17   18 1
    34   17   35 1
    35   18   19 1
    36   18   36 1
    37   18   37 1
    38   19   20 1
    39   19   38 1
    40   19   39 1
    41   20   40 1
    42   21   22 ar
@<TRIPOS>Similarity
1.0080
@<TRIPOS>ShapeSim
0.7261
@<TRIPOS>PharmSim
0.2820
# END
# Name:		CN1C=NC2=C(N=C(N=C21)NCCO)NCC3=CC=CC=C3
# Created and modified by SHAFTS on Thu Mar 11 05:28:35 2021

# 

@<TRIPOS>MOLECULE
CN1C=NC2=C(N=C(N=C21)NCCO)NCC3=CC=CC=C3
   40    42     0
SMALL
USER_CHARGE


@<TRIPOS>ATOM
      1 C1          6.2647   -2.1168    0.6274 C.3       1 <1>         0.0057
      2 N2          4.9495   -1.8198    0.0544 N.pl3     1 <1>        -0.3162
      3 C3          4.4643   -2.2802   -1.1348 C.2       1 <1>         0.0221
      4 N4          3.2639   -1.8195   -1.3329 N.2       1 <1>        -0.3708
      5 C5          2.9029   -1.0362   -0.2867 C.ar      1 <1>         0.0828
      6 C6          1.7545   -0.2944    0.0397 C.ar      1 <1>         0.0513
      7 N7          0.6644   -0.2683   -0.8121 N.pl3     1 <1>        -0.3413
      8 C8         -0.5245    0.5103   -0.4564 C.3       1 <1>        -0.0044
      9 C9         -1.5591    0.3723   -1.5435 C.ar      1 <1>        -0.0866
     10 C10        -1.5715    1.2605   -2.6026 C.ar      1 <1>        -0.0984
     11 C11        -2.5204    1.1339   -3.5997 C.ar      1 <1>        -0.1056
     12 C12        -3.4567    0.1188   -3.5380 C.ar      1 <1>        -0.1075
     13 C13        -3.4437   -0.7701   -2.4794 C.ar      1 <1>        -0.1056
     14 C14        -2.4921   -0.6460   -1.4844 C.ar      1 <1>        -0.0984
     15 N15         1.7382    0.3809    1.1835 N.ar      1 <1>        -0.3025
     16 C16         2.7787    0.3612    2.0065 C.ar      1 <1>         0.0627
     17 N17         2.7114    1.0824    3.1871 N.pl3     1 <1>        -0.3286
     18 C18         1.5055    1.8495    3.5092 C.3       1 <1>        -0.0019
     19 C19         1.6901    2.5476    4.8580 C.3       1 <1>        -0.0094
     20 O20         2.7370    3.5149    4.7543 O.3       1 <1>        -0.4912
     21 N21         3.8785   -0.3240    1.7383 N.ar      1 <1>        -0.3275
     22 C22         3.9777   -1.0323    0.6178 C.ar      1 <1>         0.0444
     23 H23         6.1985   -3.0138    1.2432 H         1 <1>         0.1000
     24 H24         6.9828   -2.2801   -0.1763 H         1 <1>         0.1144
     25 H25         6.5914   -1.2777    1.2416 H         1 <1>         0.1144
     26 H26         4.9979   -2.9309   -1.8118 H         1 <1>         0.2864
     27 H27         0.6874   -0.7655   -1.6446 H         1 <1>         0.3213
     28 H28        -0.9335    0.1399    0.4836 H         1 <1>         0.1205
     29 H29        -0.2518    1.5597   -0.3455 H         1 <1>         0.1205
     30 H30        -0.8400    2.0536   -2.6507 H         1 <1>         0.1177
     31 H31        -2.5305    1.8283   -4.4268 H         1 <1>         0.1128
     32 H32        -4.1986    0.0203   -4.3168 H         1 <1>         0.1142
     33 H33        -4.1754   -1.5630   -2.4310 H         1 <1>         0.1128
     34 H34        -2.4819   -1.3405   -0.6573 H         1 <1>         0.1177
     35 H35         3.4626    1.0795    3.8008 H         1 <1>         0.3241
     36 H36         1.3321    2.5961    2.7343 H         1 <1>         0.1092
     37 H37         0.6500    1.1760    3.5628 H         1 <1>         0.1164
     38 H38         0.7622    3.0454    5.1395 H         1 <1>         0.0987
     39 H39         1.9512    1.8096    5.6164 H         1 <1>         0.0843
     40 H40         2.9094    3.9973    5.5745 H         1 <1>         0.3213
@<TRIPOS>BOND
     1    1    2 1
     2    1   23 1
     3    1   24 1
     4    1   25 1
     5    2   22 1
     6    2    3 1
     7    3    4 2
     8    3   26 1
     9    4    5 1
    10    5   22 ar
    11    5    6 ar
    12    6    7 1
    13    6   15 ar
    14    7    8 1
    15    7   27 1
    16    8    9 1
    17    8   28 1
    18    8   29 1
    19    9   14 ar
    20    9   10 ar
    21   10   11 ar
    22   10   30 1
    23   11   12 ar
    24   11   31 1
    25   12   13 ar
    26   12   32 1
    27   13   14 ar
    28   13   33 1
    29   14   34 1
    30   15   16 ar
    31   16   17 1
    32   16   21 ar
    33   17   18 1
    34   17   35 1
    35   18   19 1
    36   18   36 1
    37   18   37 1
    38   19   20 1
    39   19   38 1
    40   19   39 1
    41   20   40 1
    42   21   22 ar
@<TRIPOS>Similarity
1.0080
@<TRIPOS>ShapeSim
0.7261
@<TRIPOS>PharmSim
0.2820
# END
# Name:		O=C1C2=C(C=C(O)C=C2O)OC3=C(O)C=CC(O)=C31
# Created and modified by SHAFTS on Thu Mar 11 05:28:35 2021

# 

@<TRIPOS>MOLECULE
O=C1C2=C(C=C(O)C=C2O)OC3=C(O)C=CC(O)=C31
   27    29     0
SMALL
USER_CHARGE


@<TRIPOS>ATOM
      1 O1          2.3756    1.0621    2.0197 O.2       1 <1>        -0.4377
      2 C2          2.0258    0.1661    1.2725 C.2       1 <1>         0.1221
      3 C3          2.9978   -0.6652    0.5392 C.ar      1 <1>         0.0766
      4 C4          4.3472   -0.2990    0.4623 C.ar      1 <1>         0.0058
      5 O5          4.7858    0.8279    1.0777 O.3       1 <1>        -0.4174
      6 C6          5.2299   -1.0950   -0.2455 C.ar      1 <1>        -0.0152
      7 C7          4.7752   -2.2498   -0.8715 C.ar      1 <1>        -0.0098
      8 O8          5.6469   -3.0238   -1.5665 O.3       1 <1>        -0.4235
      9 C9          3.4413   -2.6201   -0.7936 C.ar      1 <1>        -0.0042
     10 C10         2.5391   -1.8378   -0.0870 C.ar      1 <1>         0.0608
     11 O11         1.2461   -2.2111   -0.0033 O.3       1 <1>        -0.3288
     12 C12         0.2818   -1.3557    0.3947 C.ar      1 <1>         0.0899
     13 C13        -1.0585   -1.6592    0.1606 C.ar      1 <1>         0.0275
     14 O14        -1.3916   -2.8153   -0.4749 O.3       1 <1>        -0.4234
     15 C15        -2.0511   -0.7880    0.5733 C.ar      1 <1>        -0.0378
     16 C16        -1.7333    0.3928    1.2222 C.ar      1 <1>        -0.0428
     17 C17        -0.4087    0.7177    1.4634 C.ar      1 <1>         0.0002
     18 O18        -0.0936    1.8744    2.1006 O.3       1 <1>        -0.4202
     19 C19         0.6022   -0.1582    1.0504 C.ar      1 <1>         0.0810
     20 H20         5.0808    0.6895    1.9880 H         1 <1>         0.3710
     21 H21         6.2719   -0.8191   -0.3118 H         1 <1>         0.1415
     22 H22         6.0709   -3.7123   -1.0361 H         1 <1>         0.3677
     23 H23         3.1033   -3.5206   -1.2849 H         1 <1>         0.1461
     24 H24        -1.5295   -3.5653    0.1198 H         1 <1>         0.3596
     25 H25        -3.0864   -1.0322    0.3866 H         1 <1>         0.1593
     26 H26        -2.5192    1.0617    1.5404 H         1 <1>         0.1415
     27 H27        -0.0415    1.7919    3.0626 H         1 <1>         0.3702
@<TRIPOS>BOND
     1    1    2 2
     2    2   19 1
     3    2    3 1
     4    3   10 ar
     5    3    4 ar
     6    4    5 1
     7    4    6 ar
     8    5   20 1
     9    6    7 ar
    10    6   21 1
    11    7    8 1
    12    7    9 ar
    13    8   22 1
    14    9   10 ar
    15    9   23 1
    16   10   11 1
    17   11   12 1
    18   12   19 ar
    19   12   13 ar
    20   13   14 1
    21   13   15 ar
    22   14   24 1
    23   15   16 ar
    24   15   25 1
    25   16   17 ar
    26   16   26 1
    27   17   18 1
    28   17   19 ar
    29   18   27 1
@<TRIPOS>Similarity
1.0073
@<TRIPOS>ShapeSim
0.6766
@<TRIPOS>PharmSim
0.3307
# END
# Name:		CCOC1=CC=C2C(SC(C)=N2)=C1
# Created and modified by SHAFTS on Thu Mar 11 05:28:35 2021

# 

@<TRIPOS>MOLECULE
CCOC1=CC=C2C(SC(C)=N2)=C1
   24    25     0
SMALL
USER_CHARGE


@<TRIPOS>ATOM
      1 C1          5.7613   -5.4170   -3.1303 C.3       1 <1>        -0.0330
      2 C2          4.7000   -4.6178   -2.3713 C.3       1 <1>         0.0172
      3 O3          5.3046   -3.4678   -1.7765 O.3       1 <1>        -0.4126
      4 C4          4.4934   -2.6447   -1.0605 C.ar      1 <1>        -0.0008
      5 C5          3.1400   -2.9421   -0.9280 C.ar      1 <1>        -0.0477
      6 C6          2.3156   -2.1274   -0.2148 C.ar      1 <1>        -0.0550
      7 C7          2.8164   -0.9633    0.4061 C.ar      1 <1>        -0.0328
      8 N8          2.1567   -0.0487    1.1438 N.2       1 <1>        -0.3912
      9 C9          2.8205    0.9395    1.6143 C.2       1 <1>         0.0130
     10 C10         2.2362    2.0451    2.4555 C.3       1 <1>         0.0119
     11 S11         4.5101    0.8255    1.1412 S.3       1 <1>        -0.0823
     12 C12         4.1773   -0.6694    0.2702 C.ar      1 <1>        -0.0039
     13 C13         5.0115   -1.5149   -0.4585 C.ar      1 <1>        -0.0380
     14 H14         6.1983   -4.7923   -3.9094 H         1 <1>         0.0511
     15 H15         6.5415   -5.7337   -2.4382 H         1 <1>         0.0511
     16 H16         5.3001   -6.2942   -3.5840 H         1 <1>         0.0583
     17 H17         3.9197   -4.3012   -3.0635 H         1 <1>         0.0999
     18 H18         4.2630   -5.2425   -1.5923 H         1 <1>         0.0999
     19 H19         2.7398   -3.8290   -1.3967 H         1 <1>         0.1268
     20 H20         1.2681   -2.3740   -0.1235 H         1 <1>         0.1576
     21 H21         2.2965    1.7710    3.5087 H         1 <1>         0.0900
     22 H22         2.7962    2.9647    2.2867 H         1 <1>         0.0900
     23 H23         1.1930    2.1991    2.1794 H         1 <1>         0.0900
     24 H24         6.0622   -1.2849   -0.5553 H         1 <1>         0.1407
@<TRIPOS>BOND
     1    1    2 1
     2    1   14 1
     3    1   15 1
     4    1   16 1
     5    2    3 1
     6    2   17 1
     7    2   18 1
     8    3    4 1
     9    4   13 ar
    10    4    5 ar
    11    5    6 ar
    12    5   19 1
    13    6    7 ar
    14    6   20 1
    15    7   12 ar
    16    7    8 1
    17    8    9 2
    18    9   10 1
    19    9   11 1
    20   10   21 1
    21   10   22 1
    22   10   23 1
    23   11   12 1
    24   12   13 ar
    25   13   24 1
@<TRIPOS>Similarity
1.0072
@<TRIPOS>ShapeSim
0.6220
@<TRIPOS>PharmSim
0.3852
# END
# Name:		COC1=C(C(=CC=C1)OCCCN)C2=CC(=NN2)NC3=NC=C(N=C3)C#N
# Created and modified by SHAFTS on Thu Mar 11 05:28:35 2021

# 

@<TRIPOS>MOLECULE
COC1=C(C(=CC=C1)OCCCN)C2=CC(=NN2)NC3=NC=C(N=C3)C#N
   47    49     0
SMALL
USER_CHARGE


@<TRIPOS>ATOM
      1 C1          1.3808   -4.2025   -0.8599 C.3       1 <1>         0.0326
      2 O2          1.4671   -2.8580   -0.3836 O.3       1 <1>        -0.3978
      3 C3          2.7110   -2.3271   -0.2570 C.ar      1 <1>         0.0285
      4 C4          3.8249   -3.0806   -0.5891 C.ar      1 <1>        -0.0581
      5 C5          5.0923   -2.5420   -0.4614 C.ar      1 <1>        -0.0979
      6 C6          5.2597   -1.2490   -0.0016 C.ar      1 <1>        -0.0677
      7 C7          4.1569   -0.4811    0.3357 C.ar      1 <1>         0.0176
      8 O8          4.3238    0.7891    0.7874 O.3       1 <1>        -0.4072
      9 C9          5.6654    1.2702    0.8902 C.3       1 <1>         0.0214
     10 C10         5.6529    2.7082    1.4123 C.3       1 <1>        -0.0446
     11 C11         7.0895    3.2233    1.5225 C.3       1 <1>        -0.1124
     12 N12         7.0775    4.6041    2.0237 N.4       1 <1>         0.4450
     13 H13         8.0248    4.9437    2.0963 H         1 <1>         0.1479
     14 H14         6.5584    5.1889    1.3861 H         1 <1>         0.1479
     15 H15         6.6410    4.6280    2.9331 H         1 <1>         0.1479
     16 C16         2.8708   -1.0156    0.2039 C.ar      1 <1>         0.0439
     17 C17         1.6879   -0.2036    0.5608 C.2       1 <1>        -0.0054
     18 C18         0.5367   -0.0890   -0.1658 C.2       1 <1>        -0.0027
     19 C19        -0.3225    0.7736    0.5270 C.2       1 <1>         0.0287
     20 N20        -1.6065    1.1534    0.1172 N.pl3     1 <1>        -0.2853
     21 C21        -2.0798    0.7663   -1.1268 C.ar      1 <1>         0.0624
     22 C22        -3.3138    1.2375   -1.5819 C.ar      1 <1>         0.0566
     23 N23        -3.7641    0.8707   -2.7625 N.ar      1 <1>        -0.3208
     24 C24        -3.0429    0.0491   -3.5248 C.ar      1 <1>         0.1534
     25 C25        -3.5323   -0.3501   -4.8101 C.1       1 <1>         0.1138
     26 N26        -3.9205   -0.6668   -5.8296 N.1       1 <1>        -0.3452
     27 C27        -1.8101   -0.4216   -3.0700 C.ar      1 <1>         0.0540
     28 N28        -1.3575   -0.0482   -1.8877 N.ar      1 <1>        -0.3300
     29 N29         0.2798    1.1655    1.6257 N.2       1 <1>        -0.3320
     30 N30         1.5434    0.5636    1.6784 N.pl3     1 <1>        -0.3085
     31 H31         1.8286   -4.2660   -1.8516 H         1 <1>         0.0924
     32 H32         1.9137   -4.8645   -0.1775 H         1 <1>         0.0924
     33 H33         0.3343   -4.5023   -0.9140 H         1 <1>         0.1285
     34 H34         3.7033   -4.0918   -0.9485 H         1 <1>         0.1156
     35 H35         5.9563   -3.1351   -0.7222 H         1 <1>         0.1438
     36 H36         6.2531   -0.8365    0.0955 H         1 <1>         0.1041
     37 H37         6.2261    0.6384    1.5791 H         1 <1>         0.1098
     38 H38         6.1369    1.2444   -0.0922 H         1 <1>         0.1098
     39 H39         5.0923    3.3401    0.7235 H         1 <1>         0.0715
     40 H40         5.1814    2.7341    2.3947 H         1 <1>         0.0715
     41 H41         7.6501    2.5915    2.2113 H         1 <1>         0.0936
     42 H42         7.5610    3.1975    0.5400 H         1 <1>         0.0936
     43 H43         0.3267   -0.5763   -1.1065 H         1 <1>         0.1688
     44 H44        -2.1646    1.6875    0.7038 H         1 <1>         0.3548
     45 H45        -3.8985    1.9029   -0.9641 H         1 <1>         0.2269
     46 H46        -1.2251   -1.0876   -3.6868 H         1 <1>         0.2458
     47 H47         2.2013    0.6773    2.3821 H         1 <1>         0.3809
@<TRIPOS>BOND
     1    1    2 1
     2    1   31 1
     3    1   32 1
     4    1   33 1
     5    2    3 1
     6    3   16 ar
     7    3    4 ar
     8    4    5 ar
     9    4   34 1
    10    5    6 ar
    11    5   35 1
    12    6    7 ar
    13    6   36 1
    14    7    8 1
    15    7   16 ar
    16    8    9 1
    17    9   10 1
    18    9   37 1
    19    9   38 1
    20   10   11 1
    21   10   39 1
    22   10   40 1
    23   11   12 1
    24   11   41 1
    25   11   42 1
    26   12   13 1
    27   12   14 1
    28   12   15 1
    29   16   17 1
    30   17   30 1
    31   17   18 2
    32   18   19 1
    33   18   43 1
    34   19   20 1
    35   19   29 2
    36   20   21 1
    37   20   44 1
    38   21   28 ar
    39   21   22 ar
    40   22   23 ar
    41   22   45 1
    42   23   24 ar
    43   24   25 1
    44   24   27 ar
    45   25   26 3
    46   27   28 ar
    47   27   46 1
    48   29   30 1
    49   30   47 1
@<TRIPOS>Similarity
1.0070
@<TRIPOS>ShapeSim
0.7903
@<TRIPOS>PharmSim
0.2167
# END
# Name:		COC1=C(C(=CC=C1)OCCCN)C2=CC(=NN2)NC3=NC=C(N=C3)C#N
# Created and modified by SHAFTS on Thu Mar 11 05:28:35 2021

# 

@<TRIPOS>MOLECULE
COC1=C(C(=CC=C1)OCCCN)C2=CC(=NN2)NC3=NC=C(N=C3)C#N
   47    49     0
SMALL
USER_CHARGE


@<TRIPOS>ATOM
      1 C1          1.3808   -4.2025   -0.8599 C.3       1 <1>         0.0326
      2 O2          1.4671   -2.8580   -0.3836 O.3       1 <1>        -0.3978
      3 C3          2.7110   -2.3271   -0.2570 C.ar      1 <1>         0.0285
      4 C4          3.8249   -3.0806   -0.5891 C.ar      1 <1>        -0.0581
      5 C5          5.0923   -2.5420   -0.4614 C.ar      1 <1>        -0.0979
      6 C6          5.2597   -1.2490   -0.0016 C.ar      1 <1>        -0.0677
      7 C7          4.1569   -0.4811    0.3357 C.ar      1 <1>         0.0176
      8 O8          4.3238    0.7891    0.7874 O.3       1 <1>        -0.4072
      9 C9          5.6654    1.2702    0.8902 C.3       1 <1>         0.0214
     10 C10         5.6529    2.7082    1.4123 C.3       1 <1>        -0.0446
     11 C11         7.0895    3.2233    1.5225 C.3       1 <1>        -0.1124
     12 N12         7.0775    4.6041    2.0237 N.4       1 <1>         0.4450
     13 H13         8.0248    4.9437    2.0963 H         1 <1>         0.1479
     14 H14         6.5584    5.1889    1.3861 H         1 <1>         0.1479
     15 H15         6.6410    4.6280    2.9331 H         1 <1>         0.1479
     16 C16         2.8708   -1.0156    0.2039 C.ar      1 <1>         0.0439
     17 C17         1.6879   -0.2036    0.5608 C.2       1 <1>        -0.0054
     18 C18         0.5367   -0.0890   -0.1658 C.2       1 <1>        -0.0027
     19 C19        -0.3225    0.7736    0.5270 C.2       1 <1>         0.0287
     20 N20        -1.6065    1.1534    0.1172 N.pl3     1 <1>        -0.2853
     21 C21        -2.0798    0.7663   -1.1268 C.ar      1 <1>         0.0624
     22 C22        -3.3138    1.2375   -1.5819 C.ar      1 <1>         0.0566
     23 N23        -3.7641    0.8707   -2.7625 N.ar      1 <1>        -0.3208
     24 C24        -3.0429    0.0491   -3.5248 C.ar      1 <1>         0.1534
     25 C25        -3.5323   -0.3501   -4.8101 C.1       1 <1>         0.1138
     26 N26        -3.9205   -0.6668   -5.8296 N.1       1 <1>        -0.3452
     27 C27        -1.8101   -0.4216   -3.0700 C.ar      1 <1>         0.0540
     28 N28        -1.3575   -0.0482   -1.8877 N.ar      1 <1>        -0.3300
     29 N29         0.2798    1.1655    1.6257 N.2       1 <1>        -0.3320
     30 N30         1.5434    0.5636    1.6784 N.pl3     1 <1>        -0.3085
     31 H31         1.8286   -4.2660   -1.8516 H         1 <1>         0.0924
     32 H32         1.9137   -4.8645   -0.1775 H         1 <1>         0.0924
     33 H33         0.3343   -4.5023   -0.9140 H         1 <1>         0.1285
     34 H34         3.7033   -4.0918   -0.9485 H         1 <1>         0.1156
     35 H35         5.9563   -3.1351   -0.7222 H         1 <1>         0.1438
     36 H36         6.2531   -0.8365    0.0955 H         1 <1>         0.1041
     37 H37         6.2261    0.6384    1.5791 H         1 <1>         0.1098
     38 H38         6.1369    1.2444   -0.0922 H         1 <1>         0.1098
     39 H39         5.0923    3.3401    0.7235 H         1 <1>         0.0715
     40 H40         5.1814    2.7341    2.3947 H         1 <1>         0.0715
     41 H41         7.6501    2.5915    2.2113 H         1 <1>         0.0936
     42 H42         7.5610    3.1975    0.5400 H         1 <1>         0.0936
     43 H43         0.3267   -0.5763   -1.1065 H         1 <1>         0.1688
     44 H44        -2.1646    1.6875    0.7038 H         1 <1>         0.3548
     45 H45        -3.8985    1.9029   -0.9641 H         1 <1>         0.2269
     46 H46        -1.2251   -1.0876   -3.6868 H         1 <1>         0.2458
     47 H47         2.2013    0.6773    2.3821 H         1 <1>         0.3809
@<TRIPOS>BOND
     1    1    2 1
     2    1   31 1
     3    1   32 1
     4    1   33 1
     5    2    3 1
     6    3   16 ar
     7    3    4 ar
     8    4    5 ar
     9    4   34 1
    10    5    6 ar
    11    5   35 1
    12    6    7 ar
    13    6   36 1
    14    7    8 1
    15    7   16 ar
    16    8    9 1
    17    9   10 1
    18    9   37 1
    19    9   38 1
    20   10   11 1
    21   10   39 1
    22   10   40 1
    23   11   12 1
    24   11   41 1
    25   11   42 1
    26   12   13 1
    27   12   14 1
    28   12   15 1
    29   16   17 1
    30   17   30 1
    31   17   18 2
    32   18   19 1
    33   18   43 1
    34   19   20 1
    35   19   29 2
    36   20   21 1
    37   20   44 1
    38   21   28 ar
    39   21   22 ar
    40   22   23 ar
    41   22   45 1
    42   23   24 ar
    43   24   25 1
    44   24   27 ar
    45   25   26 3
    46   27   28 ar
    47   27   46 1
    48   29   30 1
    49   30   47 1
@<TRIPOS>Similarity
1.0070
@<TRIPOS>ShapeSim
0.7903
@<TRIPOS>PharmSim
0.2167
# END
# Name:		COC1=CC2=C(C=C1)C(=O)C=C(O2)C3=CC=CC=C3
# Created and modified by SHAFTS on Thu Mar 11 05:28:35 2021

# 

@<TRIPOS>MOLECULE
COC1=CC2=C(C=C1)C(=O)C=C(O2)C3=CC=CC=C3
   31    33     0
SMALL
USER_CHARGE


@<TRIPOS>ATOM
      1 C1          6.2774   -0.2471    1.2801 C.3       1 <1>         0.0279
      2 O2          5.0183    0.3348    0.9362 O.3       1 <1>        -0.4092
      3 C3          4.1305   -0.4583    0.2840 C.ar      1 <1>         0.0049
      4 C4          4.4695   -1.7764   -0.0122 C.ar      1 <1>        -0.0551
      5 C5          3.5859   -2.5861   -0.6681 C.ar      1 <1>        -0.0676
      6 C6          2.3378   -2.0889   -1.0425 C.ar      1 <1>         0.0334
      7 C7          1.3578   -2.9329   -1.7512 C.2       1 <1>         0.0791
      8 O8          1.6067   -4.0937   -2.0330 O.2       1 <1>        -0.4736
      9 C9          0.1167   -2.3433   -2.0911 C.2       1 <1>         0.0227
     10 C10        -0.1230   -1.0470   -1.7592 C.2       1 <1>         0.0545
     11 C11        -1.4239   -0.4501   -2.1226 C.ar      1 <1>        -0.0242
     12 C12        -2.3844   -1.2140   -2.7892 C.ar      1 <1>        -0.0747
     13 C13        -3.5977   -0.6503   -3.1252 C.ar      1 <1>        -0.0944
     14 C14        -3.8642    0.6688   -2.8033 C.ar      1 <1>        -0.0984
     15 C15        -2.9171    1.4315   -2.1429 C.ar      1 <1>        -0.0944
     16 C16        -1.7017    0.8791   -1.7961 C.ar      1 <1>        -0.0747
     17 O17         0.7767   -0.2887   -1.1137 O.3       1 <1>        -0.3293
     18 C18         1.9870   -0.7600   -0.7478 C.ar      1 <1>         0.0548
     19 C19         2.8924    0.0482   -0.0764 C.ar      1 <1>         0.0007
     20 H20         6.1152   -1.1042    1.9336 H         1 <1>         0.0911
     21 H21         6.7869   -0.5730    0.3732 H         1 <1>         0.0911
     22 H22         6.8906    0.4921    1.7956 H         1 <1>         0.1273
     23 H23         5.4364   -2.1602    0.2779 H         1 <1>         0.1187
     24 H24         3.8531   -3.6075   -0.8961 H         1 <1>         0.1611
     25 H25        -0.6347   -2.9194   -2.6108 H         1 <1>         0.1367
     26 H26        -2.1777   -2.2437   -3.0413 H         1 <1>         0.1405
     27 H27        -4.3413   -1.2398   -3.6410 H         1 <1>         0.1224
     28 H28        -4.8156    1.1053   -3.0691 H         1 <1>         0.1271
     29 H29        -3.1317    2.4604   -1.8947 H         1 <1>         0.1224
     30 H30        -0.9633    1.4754   -1.2807 H         1 <1>         0.1405
     31 H31         2.6348    1.0698    0.1610 H         1 <1>         0.1486
@<TRIPOS>BOND
     1    1    2 1
     2    1   20 1
     3    1   21 1
     4    1   22 1
     5    2    3 1
     6    3   19 ar
     7    3    4 ar
     8    4    5 ar
     9    4   23 1
    10    5    6 ar
    11    5   24 1
    12    6   18 ar
    13    6    7 1
    14    7    8 2
    15    7    9 1
    16    9   10 2
    17    9   25 1
    18   10   11 1
    19   10   17 1
    20   11   16 ar
    21   11   12 ar
    22   12   13 ar
    23   12   26 1
    24   13   14 ar
    25   13   27 1
    26   14   15 ar
    27   14   28 1
    28   15   16 ar
    29   15   29 1
    30   16   30 1
    31   17   18 1
    32   18   19 ar
    33   19   31 1
@<TRIPOS>Similarity
1.0052
@<TRIPOS>ShapeSim
0.6214
@<TRIPOS>PharmSim
0.3838
# END
# Name:		O=C1N(CC2=CC=CC=C2)C(/C=C/C3=CC=CN=C3)=NC4=C1C=CC=C4
# Created and modified by SHAFTS on Thu Mar 11 05:28:35 2021

# 

@<TRIPOS>MOLECULE
O=C1N(CC2=CC=CC=C2)C(/C=C/C3=CC=CN=C3)=NC4=C1C=CC=C4
   43    46     0
SMALL
USER_CHARGE


@<TRIPOS>ATOM
      1 O1          4.1290    2.2430    2.0053 O.2       1 <1>        -0.4634
      2 C2          3.3148    2.5785    1.1650 C.2       1 <1>         0.1402
      3 C3          3.3752    3.9039    0.5312 C.ar      1 <1>         0.0532
      4 C4          4.3616    4.8302    0.8618 C.ar      1 <1>        -0.0641
      5 C5          4.3762    6.0598    0.2393 C.ar      1 <1>        -0.0907
      6 C6          3.4177    6.3815   -0.7128 C.ar      1 <1>        -0.0831
      7 C7          2.4340    5.4819   -1.0551 C.ar      1 <1>        -0.0507
      8 C8          2.3971    4.2274   -0.4379 C.ar      1 <1>        -0.0079
      9 N9          1.4510    3.3202   -0.7461 N.2       1 <1>        -0.3542
     10 C10         1.4128    2.1415   -0.1697 C.2       1 <1>         0.0497
     11 C11         0.3536    1.2073   -0.5576 C.2       1 <1>        -0.0001
     12 C12        -0.5539    1.5657   -1.4872 C.2       1 <1>        -0.0515
     13 C13        -1.6186    0.6267   -1.8771 C.ar      1 <1>        -0.0446
     14 C14        -2.5656    0.9846   -2.8471 C.ar      1 <1>        -0.0783
     15 C15        -3.5453    0.0653   -3.1768 C.ar      1 <1>        -0.0667
     16 C16        -3.5597   -1.1657   -2.5456 C.ar      1 <1>        -0.0409
     17 N17        -2.6558   -1.4766   -1.6358 N.ar      1 <1>        -0.3992
     18 C18        -1.6999   -0.6401   -1.2906 C.ar      1 <1>        -0.0298
     19 N19         2.3237    1.7433    0.7755 N.am      1 <1>        -0.2621
     20 C20         2.2162    0.4109    1.3749 C.3       1 <1>         0.0287
     21 C21         3.0111   -0.5737    0.5565 C.ar      1 <1>        -0.0853
     22 C22         2.4106   -1.2445   -0.4924 C.ar      1 <1>        -0.1002
     23 C23         3.1398   -2.1477   -1.2431 C.ar      1 <1>        -0.1042
     24 C24         4.4696   -2.3797   -0.9451 C.ar      1 <1>        -0.1065
     25 C25         5.0703   -1.7081    0.1032 C.ar      1 <1>        -0.1024
     26 C26         4.3423   -0.8018    0.8512 C.ar      1 <1>        -0.0964
     27 H27         5.1099    4.5866    1.6016 H         1 <1>         0.1465
     28 H28         5.1399    6.7796    0.4944 H         1 <1>         0.1196
     29 H29         3.4443    7.3499   -1.1901 H         1 <1>         0.1403
     30 H30         1.6937    5.7436   -1.7966 H         1 <1>         0.1439
     31 H31         0.2996    0.2313   -0.0985 H         1 <1>         0.1484
     32 H32        -0.5000    2.5418   -1.9463 H         1 <1>         0.1660
     33 H33        -2.5313    1.9529   -3.3242 H         1 <1>         0.1440
     34 H34        -4.2916    0.3063   -3.9195 H         1 <1>         0.1275
     35 H35        -4.3241   -1.8844   -2.8017 H         1 <1>         0.2022
     36 H36        -0.9782   -0.9310   -0.5416 H         1 <1>         0.2069
     37 H37         2.6073    0.4374    2.3919 H         1 <1>         0.1412
     38 H38         1.1702    0.1052    1.3957 H         1 <1>         0.1339
     39 H39         1.3717   -1.0632   -0.7252 H         1 <1>         0.1172
     40 H40         2.6703   -2.6723   -2.0622 H         1 <1>         0.1204
     41 H41         5.0389   -3.0858   -1.5312 H         1 <1>         0.1143
     42 H42         6.1091   -1.8897    0.3362 H         1 <1>         0.1208
     43 H43         4.8116   -0.2772    1.6702 H         1 <1>         0.1273
@<TRIPOS>BOND
     1    1    2 2
     2    2   19 am
     3    2    3 1
     4    3    8 ar
     5    3    4 ar
     6    4    5 ar
     7    4   27 1
     8    5    6 ar
     9    5   28 1
    10    6    7 ar
    11    6   29 1
    12    7    8 ar
    13    7   30 1
    14    8    9 1
    15    9   10 2
    16   10   11 1
    17   10   19 1
    18   11   12 2
    19   11   31 1
    20   12   13 1
    21   12   32 1
    22   13   18 ar
    23   13   14 ar
    24   14   15 ar
    25   14   33 1
    26   15   16 ar
    27   15   34 1
    28   16   17 ar
    29   16   35 1
    30   17   18 ar
    31   18   36 1
    32   19   20 1
    33   20   21 1
    34   20   37 1
    35   20   38 1
    36   21   26 ar
    37   21   22 ar
    38   22   23 ar
    39   22   39 1
    40   23   24 ar
    41   23   40 1
    42   24   25 ar
    43   24   41 1
    44   25   26 ar
    45   25   42 1
    46   26   43 1
@<TRIPOS>Similarity
1.0043
@<TRIPOS>ShapeSim
0.6409
@<TRIPOS>PharmSim
0.3634
# END
# Name:		CC(=CCC1=C(C=C(C(=C1O)C(=O)O)CCC2=CC=CC=C2)OC)C
# Created and modified by SHAFTS on Thu Mar 11 05:28:35 2021

# 

@<TRIPOS>MOLECULE
CC(=CCC1=C(C=C(C(=C1O)C(=O)O)CCC2=CC=CC=C2)OC)C
   48    49     0
SMALL
USER_CHARGE


@<TRIPOS>ATOM
      1 C1          4.0030   -4.4550   -1.7234 C.3       1 <1>         0.0300
      2 O2          4.8086   -3.4720   -1.0702 O.3       1 <1>        -0.3100
      3 C3          4.1812   -2.3488   -0.6392 C.ar      1 <1>         0.1200
      4 C4          2.8114   -2.2008   -0.8381 C.ar      1 <1>        -0.2100
      5 C5          2.1690   -1.0755   -0.4091 C.ar      1 <1>        -0.0200
      6 C6          0.6858   -0.9253   -0.6293 C.3       1 <1>        -0.0700
      7 C7          0.4384   -0.1614   -1.9316 C.3       1 <1>        -0.0800
      8 C8         -1.0449   -0.0112   -2.1520 C.ar      1 <1>        -0.0700
      9 C9         -1.7411   -0.9789   -2.8517 C.ar      1 <1>        -0.1200
     10 C10        -3.1017   -0.8412   -3.0538 C.ar      1 <1>        -0.1300
     11 C11        -3.7660    0.2641   -2.5558 C.ar      1 <1>        -0.1300
     12 C12        -3.0699    1.2313   -1.8552 C.ar      1 <1>        -0.1200
     13 C13        -1.7101    1.0915   -1.6494 C.ar      1 <1>        -0.1100
     14 C14         2.8864   -0.0608    0.2359 C.ar      1 <1>        -0.1600
     15 C15         2.1967    1.1506    0.6987 C.2       1 <1>         0.5400
     16 O16         1.7611    1.2081    1.8410 O.co2     1 <1>        -0.5000
     17 O17         2.0577    2.1024   -0.0579 O.co2     1 <1>        -0.5000
     18 C18         4.2693   -0.2069    0.4388 C.ar      1 <1>         0.1500
     19 O19         4.9741    0.7693    1.0627 O.3       1 <1>        -0.4800
     20 C20         4.9070   -1.3556    0.0028 C.ar      1 <1>        -0.1400
     21 C21         6.3895   -1.5226    0.2158 C.3       1 <1>        -0.0400
     22 C22         6.6339   -2.1937    1.5428 C.2       1 <1>        -0.1400
     23 C23         7.2826   -3.3306    1.5922 C.2       1 <1>        -0.1400
     24 C24         7.7861   -3.9666    0.3221 C.3       1 <1>        -0.1200
     25 C25         7.5256   -4.0027    2.9190 C.3       1 <1>        -0.1100
     26 H26         4.6267   -5.2994   -2.0165 H         1 <1>         0.0900
     27 H27         3.2242   -4.7976   -1.0421 H         1 <1>         0.0500
     28 H28         3.5436   -4.0176   -2.6098 H         1 <1>         0.0500
     29 H29         2.2537   -2.9807   -1.3351 H         1 <1>         0.1200
     30 H30         0.2263   -1.9116   -0.6937 H         1 <1>         0.0600
     31 H31         0.2486   -0.3747    0.2036 H         1 <1>         0.0800
     32 H32         0.8978    0.8250   -1.8672 H         1 <1>         0.1000
     33 H33         0.8755   -0.7120   -2.7646 H         1 <1>         0.0600
     34 H34        -1.2221   -1.8424   -3.2408 H         1 <1>         0.1200
     35 H35        -3.6456   -1.5968   -3.6011 H         1 <1>         0.1200
     36 H36        -4.8288    0.3720   -2.7143 H         1 <1>         0.1200
     37 H37        -3.5889    2.0950   -1.4665 H         1 <1>         0.1200
     38 H38        -1.1663    1.8471   -1.1022 H         1 <1>         0.1300
     39 H39         5.0233    0.6664    2.0230 H         1 <1>         0.3900
     40 H40         6.8045   -2.1362   -0.5837 H         1 <1>         0.0800
     41 H41         6.8699   -0.5441    0.2095 H         1 <1>         0.0800
     42 H42         6.2742   -1.7373    2.4531 H         1 <1>         0.1000
     43 H43         8.7529   -3.5373    0.0592 H         1 <1>         0.0600
     44 H44         7.8943   -5.0408    0.4717 H         1 <1>         0.0500
     45 H45         7.0753   -3.7817   -0.4833 H         1 <1>         0.0800
     46 H46         7.0920   -3.3992    3.7165 H         1 <1>         0.0600
     47 H47         7.0621   -4.9892    2.9168 H         1 <1>         0.0600
     48 H48         8.5982   -4.1054    3.0832 H         1 <1>         0.0600
@<TRIPOS>BOND
     1    1    2 1
     2    1   26 1
     3    1   27 1
     4    1   28 1
     5    2    3 1
     6    3   20 ar
     7    3    4 ar
     8    4    5 ar
     9    4   29 1
    10    5    6 1
    11    5   14 ar
    12    6    7 1
    13    6   30 1
    14    6   31 1
    15    7    8 1
    16    7   32 1
    17    7   33 1
    18    8   13 ar
    19    8    9 ar
    20    9   10 ar
    21    9   34 1
    22   10   11 ar
    23   10   35 1
    24   11   12 ar
    25   11   36 1
    26   12   13 ar
    27   12   37 1
    28   13   38 1
    29   14   15 1
    30   14   18 ar
    31   15   16 ar
    32   15   17 ar
    33   18   19 1
    34   18   20 ar
    35   19   39 1
    36   20   21 1
    37   21   22 1
    38   21   40 1
    39   21   41 1
    40   22   23 2
    41   22   42 1
    42   23   24 1
    43   23   25 1
    44   24   43 1
    45   24   44 1
    46   24   45 1
    47   25   46 1
    48   25   47 1
    49   25   48 1
@<TRIPOS>Similarity
1.0041
@<TRIPOS>ShapeSim
0.6837
@<TRIPOS>PharmSim
0.3204
# END
# Name:		CN1C2=NC(=C(C=C2C(=O)N(C1=O)C)C(=O)N)N
# Created and modified by SHAFTS on Thu Mar 11 05:28:35 2021

# 

@<TRIPOS>MOLECULE
CN1C2=NC(=C(C=C2C(=O)N(C1=O)C)C(=O)N)N
   29    30     0
SMALL
USER_CHARGE


@<TRIPOS>ATOM
      1 C1          1.7499    1.9349    2.4937 C.3       1 <1>         0.0244
      2 N2          2.6607    1.0744    1.7348 N.am      1 <1>        -0.2139
      3 C3          2.1804   -0.0389    1.1383 C.2       1 <1>         0.1626
      4 O4          1.0038   -0.3348    1.2230 O.2       1 <1>        -0.4482
      5 C5          3.1194   -0.8829    0.3833 C.ar      1 <1>         0.1113
      6 C6          2.7037   -2.0450   -0.2598 C.ar      1 <1>        -0.0033
      7 C7          3.6627   -2.7871   -0.9551 C.ar      1 <1>         0.0953
      8 C8          3.2846   -4.0259   -1.6564 C.2       1 <1>         0.0899
      9 N9          2.0354   -4.5162   -1.5322 N.am      1 <1>        -0.3427
     10 O10         4.0998   -4.6064   -2.3476 O.2       1 <1>        -0.4948
     11 C11         4.9965   -2.3323   -0.9757 C.ar      1 <1>         0.0279
     12 N12         5.9489   -3.0575   -1.6586 N.pl3     1 <1>        -0.3466
     13 N13         5.3501   -1.2199   -0.3504 N.ar      1 <1>        -0.3193
     14 C14         4.4733   -0.4906    0.3183 C.ar      1 <1>         0.0792
     15 N15         4.8541    0.6686    0.9658 N.am      1 <1>        -0.2332
     16 C16         6.2532    1.0997    0.9137 C.3       1 <1>         0.0264
     17 C17         3.9572    1.4078    1.6389 C.2       1 <1>         0.2074
     18 O18         4.3387    2.4201    2.1933 O.2       1 <1>        -0.4368
     19 H19         2.3032    2.7824    2.8983 H         1 <1>         0.1216
     20 H20         0.9599    2.2975    1.8360 H         1 <1>         0.1072
     21 H21         1.3087    1.3652    3.3116 H         1 <1>         0.1072
     22 H22         1.6724   -2.3637   -0.2225 H         1 <1>         0.1950
     23 H23         1.3852   -4.0533   -0.9809 H         1 <1>         0.2743
     24 H24         1.7864   -5.3321   -1.9940 H         1 <1>         0.2821
     25 H25         5.6858   -3.8279   -2.1863 H         1 <1>         0.3049
     26 H26         6.8822   -2.7976   -1.6117 H         1 <1>         0.2892
     27 H27         6.4020    1.7472    0.0496 H         1 <1>         0.1105
     28 H28         6.4991    1.6464    1.8241 H         1 <1>         0.1177
     29 H29         6.8996    0.2262    0.8287 H         1 <1>         0.1249
@<TRIPOS>BOND
     1    1    2 1
     2    1   19 1
     3    1   20 1
     4    1   21 1
     5    2   17 am
     6    2    3 am
     7    3    4 2
     8    3    5 1
     9    5   14 ar
    10    5    6 ar
    11    6    7 ar
    12    6   22 1
    13    7    8 1
    14    7   11 ar
    15    8    9 am
    16    8   10 2
    17    9   23 1
    18    9   24 1
    19   11   12 1
    20   11   13 ar
    21   12   25 1
    22   12   26 1
    23   13   14 ar
    24   14   15 1
    25   15   16 1
    26   15   17 am
    27   16   27 1
    28   16   28 1
    29   16   29 1
    30   17   18 2
@<TRIPOS>Similarity
1.0034
@<TRIPOS>ShapeSim
0.6878
@<TRIPOS>PharmSim
0.3155
# END
# Name:		CC(C)C1=CC2=C(C=C1)N(C(=C2SC(C)(C)C)CC(C)(C)C(=O)O)CC3=CC=C(C=C3)Cl
# Created and modified by SHAFTS on Thu Mar 11 05:28:35 2021

# 

@<TRIPOS>MOLECULE
CC(C)C1=CC2=C(C=C1)N(C(=C2SC(C)(C)C)CC(C)(C)C(=O)O)CC3=CC=C(C=C3)Cl
   65    67     0
SMALL
USER_CHARGE


@<TRIPOS>ATOM
      1 C1          7.3133   -3.1136   -1.0155 C.3       1 <1>        -0.1400
      2 C2          6.6913   -1.7963   -1.4835 C.3       1 <1>        -0.0500
      3 C3          6.4565   -1.8516   -2.9943 C.3       1 <1>        -0.1400
      4 C4          5.3767   -1.5831   -0.7783 C.ar      1 <1>        -0.1000
      5 C5          4.3580   -2.5146   -0.9241 C.ar      1 <1>        -0.1000
      6 C6          3.1485   -2.3383   -0.2884 C.ar      1 <1>        -0.1200
      7 C7          2.9438   -1.2164    0.5086 C.ar      1 <1>         0.0900
      8 C8          3.9800   -0.2756    0.6533 C.ar      1 <1>        -0.0600
      9 C9          5.1989   -0.4769    0.0043 C.ar      1 <1>        -0.0700
     10 C10         3.4594    0.7723    1.5394 C.2       1 <1>        -0.2100
     11 S11         4.3187    2.2138    2.0765 S.3       1 <1>        -0.0900
     12 C12         3.9104    3.4327    0.7966 C.3       1 <1>        -0.0600
     13 C13         2.3946    3.6349    0.7498 C.3       1 <1>        -0.1400
     14 C14         4.5926    4.7628    1.1229 C.3       1 <1>        -0.1300
     15 C15         4.4000    2.9285   -0.5625 C.3       1 <1>        -0.1300
     16 C16         2.2002    0.4224    1.8640 C.2       1 <1>         0.1800
     17 C17         1.2836    1.2148    2.7600 C.3       1 <1>        -0.0400
     18 C18         1.4689    0.7605    4.2092 C.3       1 <1>        -0.1200
     19 C19         1.1331   -0.7278    4.3240 C.3       1 <1>        -0.1300
     20 C20         2.9208    0.9899    4.6339 C.3       1 <1>        -0.1200
     21 C21         0.5523    1.5529    5.1052 C.2       1 <1>         0.5100
     22 O22        -0.1813    2.4023    4.6289 O.co2     1 <1>        -0.5000
     23 O23         0.5442    1.3445    6.3065 O.co2     1 <1>        -0.5000
     24 N24         1.8766   -0.7678    1.2535 N.pl3     1 <1>        -0.4700
     25 C25         0.5887   -1.4548    1.3779 C.3       1 <1>         0.1300
     26 C26        -0.3416   -0.9788    0.2920 C.ar      1 <1>        -0.1000
     27 C27        -1.1590    0.1140    0.5126 C.ar      1 <1>        -0.0800
     28 C28        -2.0123    0.5511   -0.4829 C.ar      1 <1>        -0.1100
     29 C29        -2.0483   -0.1051   -1.7003 C.ar      1 <1>        -0.0300
     30 Cl30       -3.1195    0.4436   -2.9514 Cl        1 <1>        -0.0700
     31 C31        -1.2299   -1.1988   -1.9204 C.ar      1 <1>        -0.1100
     32 C32        -0.3729   -1.6315   -0.9261 C.ar      1 <1>        -0.0900
     33 H33         8.2641   -3.2679   -1.5256 H         1 <1>         0.0500
     34 H34         7.4805   -3.0743    0.0608 H         1 <1>         0.0600
     35 H35         6.6382   -3.9371   -1.2484 H         1 <1>         0.0500
     36 H36         7.3664   -0.9729   -1.2506 H         1 <1>         0.0700
     37 H37         7.4074   -2.0059   -3.5044 H         1 <1>         0.0500
     38 H38         5.7815   -2.6750   -3.2273 H         1 <1>         0.0500
     39 H39         6.0134   -0.9132   -3.3277 H         1 <1>         0.0500
     40 H40         4.5150   -3.3861   -1.5424 H         1 <1>         0.1200
     41 H41         2.3618   -3.0683   -0.4087 H         1 <1>         0.1100
     42 H42         5.9963    0.2433    0.1136 H         1 <1>         0.1200
     43 H43         2.0459    3.9941    1.7181 H         1 <1>         0.0700
     44 H44         2.1493    4.3674   -0.0193 H         1 <1>         0.0500
     45 H45         1.9087    2.6874    0.5173 H         1 <1>         0.0600
     46 H46         5.6726    4.6187    1.1563 H         1 <1>         0.0600
     47 H47         4.3473    5.4953    0.3539 H         1 <1>         0.0600
     48 H48         4.2439    5.1220    2.0912 H         1 <1>         0.0600
     49 H49         3.9140    1.9809   -0.7951 H         1 <1>         0.0600
     50 H50         4.1546    3.6609   -1.3316 H         1 <1>         0.0500
     51 H51         5.4798    2.7845   -0.5292 H         1 <1>         0.0600
     52 H52         1.5229    2.2751    2.6782 H         1 <1>         0.1000
     53 H53         0.2493    1.0514    2.4575 H         1 <1>         0.0700
     54 H54         1.7961   -1.3010    3.6759 H         1 <1>         0.0400
     55 H55         1.2651   -1.0515    5.3564 H         1 <1>         0.0600
     56 H56         0.0988   -0.8912    4.0214 H         1 <1>         0.0400
     57 H57         3.1601    2.0502    4.5521 H         1 <1>         0.0600
     58 H58         3.0529    0.6662    5.6663 H         1 <1>         0.0500
     59 H59         3.5838    0.4167    3.9858 H         1 <1>         0.0400
     60 H60         0.7396   -2.5300    1.2814 H         1 <1>         0.1000
     61 H61         0.1523   -1.2352    2.3523 H         1 <1>         0.1200
     62 H62        -1.1311    0.6261    1.4631 H         1 <1>         0.1400
     63 H63        -2.6512    1.4046   -0.3104 H         1 <1>         0.1400
     64 H64        -1.2578   -1.7118   -2.8704 H         1 <1>         0.1300
     65 H65         0.2662   -2.4849   -1.0980 H         1 <1>         0.1300
@<TRIPOS>BOND
     1    1    2 1
     2    1   33 1
     3    1   34 1
     4    1   35 1
     5    2    3 1
     6    2    4 1
     7    2   36 1
     8    3   37 1
     9    3   38 1
    10    3   39 1
    11    4    9 ar
    12    4    5 ar
    13    5    6 ar
    14    5   40 1
    15    6    7 ar
    16    6   41 1
    17    7   24 1
    18    7    8 ar
    19    8    9 ar
    20    8   10 1
    21    9   42 1
    22   10   11 1
    23   10   16 2
    24   11   12 1
    25   12   13 1
    26   12   14 1
    27   12   15 1
    28   13   43 1
    29   13   44 1
    30   13   45 1
    31   14   46 1
    32   14   47 1
    33   14   48 1
    34   15   49 1
    35   15   50 1
    36   15   51 1
    37   16   17 1
    38   16   24 1
    39   17   18 1
    40   17   52 1
    41   17   53 1
    42   18   19 1
    43   18   20 1
    44   18   21 1
    45   19   54 1
    46   19   55 1
    47   19   56 1
    48   20   57 1
    49   20   58 1
    50   20   59 1
    51   21   22 ar
    52   21   23 ar
    53   24   25 1
    54   25   26 1
    55   25   60 1
    56   25   61 1
    57   26   32 ar
    58   26   27 ar
    59   27   28 ar
    60   27   62 1
    61   28   29 ar
    62   28   63 1
    63   29   30 1
    64   29   31 ar
    65   31   32 ar
    66   31   64 1
    67   32   65 1
@<TRIPOS>Similarity
1.0024
@<TRIPOS>ShapeSim
0.6953
@<TRIPOS>PharmSim
0.3071
# END
# Name:		CN(CCCN1C(C=CC=C2)=C2N=C1CN(C3C4=NC=CC=C4CCC3)C)C
# Created and modified by SHAFTS on Thu Mar 11 05:28:35 2021

# 

@<TRIPOS>MOLECULE
CN(CCCN1C(C=CC=C2)=C2N=C1CN(C3C4=NC=CC=C4CCC3)C)C
   60    63     0
SMALL
USER_CHARGE


@<TRIPOS>ATOM
      1 C1          0.9460    0.9817   -1.7140 C.3       1 <1>        -0.1711
      2 N2          0.1647    0.2722   -0.6921 N.3       1 <1>         0.3631
      3 C3         -0.6248   -0.8119   -1.2915 C.3       1 <1>        -0.0805
      4 C4         -1.8242   -0.2304   -1.9945 C.2       1 <1>        -0.0066
      5 N5         -1.8841    0.0405   -3.2658 N.2       1 <1>        -0.3689
      6 C6         -3.1058    0.5511   -3.5665 C.ar      1 <1>        -0.0175
      7 C7         -3.6974    1.0012   -4.7495 C.ar      1 <1>        -0.0601
      8 C8         -4.9799    1.4721   -4.7330 C.ar      1 <1>        -0.0911
      9 C9         -5.7052    1.5088   -3.5509 C.ar      1 <1>        -0.0965
     10 C10        -5.1416    1.0702   -2.3713 C.ar      1 <1>        -0.0738
     11 C11        -3.8401    0.5880   -2.3688 C.ar      1 <1>        -0.0300
     12 N12        -3.0039    0.0823   -1.3936 N.pl3     1 <1>        -0.3460
     13 C13        -3.3268   -0.0854    0.0255 C.3       1 <1>        -0.0058
     14 C14        -4.0317   -1.4274    0.2331 C.3       1 <1>        -0.0497
     15 C15        -4.4740   -1.5508    1.6926 C.3       1 <1>        -0.0999
     16 N16        -5.1508   -2.8392    1.8919 N.4       1 <1>         0.4081
     17 H17        -5.9098   -2.9259    1.2328 H         1 <1>         0.1636
     18 C18        -4.1929   -3.9331    1.6822 C.3       1 <1>        -0.0923
     19 C19        -5.6804   -2.9077    3.2604 C.3       1 <1>        -0.0923
     20 C20         1.0350   -0.2384    0.3755 C.3       1 <1>        -0.1268
     21 H21         0.4449   -0.8489    1.0590 H         1 <1>         0.0906
     22 C22         1.6357    0.9382    1.1417 C.3       1 <1>        -0.0601
     23 C23         2.6977    0.3980    2.1065 C.3       1 <1>        -0.0547
     24 C24         3.8886   -0.0934    1.2855 C.3       1 <1>        -0.0396
     25 C25         3.4303   -1.0225    0.1939 C.ar      1 <1>        -0.0810
     26 C26         4.3789   -1.8480   -0.4016 C.ar      1 <1>        -0.0887
     27 C27         3.9785   -2.7058   -1.4119 C.ar      1 <1>        -0.0712
     28 C28         2.6505   -2.7115   -1.7943 C.ar      1 <1>        -0.0458
     29 N29         1.7808   -1.9185   -1.2070 N.ar      1 <1>        -0.4093
     30 C30         2.1238   -1.0846   -0.2329 C.ar      1 <1>        -0.0709
     31 H31         0.2797    1.3323   -2.5022 H         1 <1>         0.0492
     32 H32         1.4506    1.8339   -1.2589 H         1 <1>         0.0420
     33 H33         1.6873    0.3051   -2.1392 H         1 <1>         0.0205
     34 H34        -0.0103   -1.3545   -2.0098 H         1 <1>         0.1166
     35 H35        -0.9576   -1.4943   -0.5093 H         1 <1>         0.0951
     36 H36        -3.1417    0.9773   -5.6753 H         1 <1>         0.1424
     37 H37        -5.4336    1.8195   -5.6494 H         1 <1>         0.1207
     38 H38        -6.7179    1.8840   -3.5545 H         1 <1>         0.1246
     39 H39        -5.7104    1.1016   -1.4537 H         1 <1>         0.1204
     40 H40        -2.4084   -0.0628    0.6122 H         1 <1>         0.1328
     41 H41        -3.9832    0.7233    0.3468 H         1 <1>         0.1256
     42 H42        -4.9048   -1.4836   -0.4171 H         1 <1>         0.0628
     43 H43        -3.3458   -2.2393   -0.0086 H         1 <1>         0.0628
     44 H44        -3.6010   -1.4945    2.3427 H         1 <1>         0.0873
     45 H45        -5.1599   -0.7388    1.9342 H         1 <1>         0.0944
     46 H46        -3.3730   -3.8394    2.3943 H         1 <1>         0.0764
     47 H47        -4.6952   -4.8892    1.8302 H         1 <1>         0.0835
     48 H48        -3.8000   -3.8824    0.6668 H         1 <1>         0.0764
     49 H49        -6.3912   -2.0960    3.4159 H         1 <1>         0.0764
     50 H50        -6.1825   -3.8637    3.4083 H         1 <1>         0.0835
     51 H51        -4.8604   -2.8139    3.9724 H         1 <1>         0.0764
     52 H52         2.0973    1.6341    0.4412 H         1 <1>         0.0645
     53 H53         0.8532    1.4462    1.7054 H         1 <1>         0.0645
     54 H54         3.0192    1.1919    2.7807 H         1 <1>         0.0567
     55 H55         2.2832   -0.4288    2.6832 H         1 <1>         0.0496
     56 H56         4.3958    0.7624    0.8399 H         1 <1>         0.0679
     57 H57         4.5827   -0.6215    1.9393 H         1 <1>         0.0679
     58 H58         5.4100   -1.8198   -0.0816 H         1 <1>         0.1369
     59 H59         4.6916   -3.3589   -1.8930 H         1 <1>         0.1283
     60 H60         2.3237   -3.3731   -2.5831 H         1 <1>         0.1993
@<TRIPOS>BOND
     1    1    2 1
     2    1   31 1
     3    1   32 1
     4    1   33 1
     5    2    3 1
     6    2   20 1
     7    3    4 1
     8    3   34 1
     9    3   35 1
    10    4   12 1
    11    4    5 2
    12    5    6 1
    13    6   11 ar
    14    6    7 ar
    15    7    8 ar
    16    7   36 1
    17    8    9 ar
    18    8   37 1
    19    9   10 ar
    20    9   38 1
    21   10   11 ar
    22   10   39 1
    23   11   12 1
    24   12   13 1
    25   13   14 1
    26   13   40 1
    27   13   41 1
    28   14   15 1
    29   14   42 1
    30   14   43 1
    31   15   16 1
    32   15   44 1
    33   15   45 1
    34   16   17 1
    35   16   18 1
    36   16   19 1
    37   18   46 1
    38   18   47 1
    39   18   48 1
    40   19   49 1
    41   19   50 1
    42   19   51 1
    43   20   21 1
    44   20   30 1
    45   20   22 1
    46   22   23 1
    47   22   52 1
    48   22   53 1
    49   23   24 1
    50   23   54 1
    51   23   55 1
    52   24   25 1
    53   24   56 1
    54   24   57 1
    55   25   30 ar
    56   25   26 ar
    57   26   27 ar
    58   26   58 1
    59   27   28 ar
    60   27   59 1
    61   28   29 ar
    62   28   60 1
    63   29   30 ar
@<TRIPOS>Similarity
1.0024
@<TRIPOS>ShapeSim
0.6783
@<TRIPOS>PharmSim
0.3240
# END
# Name:		COC1=C(C=C(C=C1)C2=CC(=O)C3=C(O2)C(=C(C(=C3OC)OC)OC)OC)OC
# Created and modified by SHAFTS on Thu Mar 11 05:28:35 2021

# 

@<TRIPOS>MOLECULE
COC1=C(C=C(C=C1)C2=CC(=O)C3=C(O2)C(=C(C(=C3OC)OC)OC)OC)OC
   51    53     0
SMALL
USER_CHARGE


@<TRIPOS>ATOM
      1 C1         -5.5938    1.6153   -3.2503 C.3       1 <1>         0.0286
      2 O2         -4.9197    0.3604   -3.3648 O.3       1 <1>        -0.4035
      3 C3         -3.6659    0.2845   -2.8470 C.ar      1 <1>         0.0401
      4 C4         -3.1007    1.3951   -2.2366 C.ar      1 <1>        -0.0487
      5 C5         -1.8289    1.3234   -1.7095 C.ar      1 <1>        -0.0740
      6 C6         -1.1060    0.1304   -1.7894 C.ar      1 <1>        -0.0237
      7 C7          0.2549    0.0515   -1.2257 C.2       1 <1>         0.0540
      8 C8          0.7805    1.1550   -0.6281 C.2       1 <1>         0.0269
      9 C9          2.0840    1.0986   -0.0816 C.2       1 <1>         0.0978
     10 O10         2.5860    2.0693    0.4619 O.2       1 <1>        -0.4597
     11 C11         2.8119   -0.1771   -0.1935 C.ar      1 <1>         0.0942
     12 C12         4.1055   -0.3220    0.3197 C.ar      1 <1>         0.0783
     13 O13         4.7180    0.7230    0.9362 O.3       1 <1>        -0.3940
     14 C14         4.4408    0.9097    2.3255 C.3       1 <1>         0.0276
     15 C15         4.7580   -1.5385    0.1955 C.ar      1 <1>         0.0993
     16 O16         6.0166   -1.6882    0.6923 O.3       1 <1>        -0.4084
     17 C17         6.1355   -2.2584    1.9972 C.3       1 <1>         0.0208
     18 C18         4.1283   -2.6083   -0.4362 C.ar      1 <1>         0.1011
     19 O19         4.7760   -3.7977   -0.5535 O.3       1 <1>        -0.3971
     20 C20         5.6536   -3.9510   -1.6707 C.3       1 <1>         0.0260
     21 C21         2.8443   -2.4704   -0.9470 C.ar      1 <1>         0.1043
     22 O22         2.2395   -3.5241   -1.5619 O.3       1 <1>        -0.4055
     23 C23         1.3810   -4.3377   -0.7600 C.3       1 <1>         0.0217
     24 C24         2.1770   -1.2576   -0.8309 C.ar      1 <1>         0.1085
     25 O25         0.9252   -1.1078   -1.3173 O.3       1 <1>        -0.3219
     26 C26        -1.6756   -0.9884   -2.4045 C.ar      1 <1>        -0.0308
     27 C27        -2.9525   -0.9108   -2.9253 C.ar      1 <1>         0.0445
     28 O28        -3.5098   -1.9975   -3.5238 O.3       1 <1>        -0.4059
     29 C29        -2.7177   -3.1855   -3.5786 C.3       1 <1>         0.0274
     30 H30        -5.6953    1.8785   -2.1974 H         1 <1>         0.0915
     31 H31        -5.0179    2.3854   -3.7635 H         1 <1>         0.0915
     32 H32        -6.5826    1.5390   -3.7027 H         1 <1>         0.1277
     33 H33        -3.6583    2.3179   -2.1745 H         1 <1>         0.1342
     34 H34        -1.3911    2.1893   -1.2353 H         1 <1>         0.1407
     35 H35         0.2064    2.0680   -0.5715 H         1 <1>         0.1445
     36 H36         4.9184    1.8264    2.6714 H         1 <1>         0.1237
     37 H37         3.3634    0.9828    2.4744 H         1 <1>         0.0876
     38 H38         4.8289    0.0622    2.8905 H         1 <1>         0.0803
     39 H39         5.6861   -1.5874    2.7293 H         1 <1>         0.0845
     40 H40         5.6220   -3.2196    2.0218 H         1 <1>         0.0845
     41 H41         7.1892   -2.4032    2.2358 H         1 <1>         0.1207
     42 H42         5.1085   -3.7455   -2.5920 H         1 <1>         0.0869
     43 H43         6.4858   -3.2532   -1.5776 H         1 <1>         0.0941
     44 H44         6.0362   -4.9715   -1.6949 H         1 <1>         0.1231
     45 H45         0.5237   -3.7492   -0.4333 H         1 <1>         0.0846
     46 H46         1.0352   -5.1890   -1.3465 H         1 <1>         0.1208
     47 H47         1.9293   -4.6956    0.1114 H         1 <1>         0.0846
     48 H48        -1.1200   -1.9123   -2.4687 H         1 <1>         0.1464
     49 H49        -3.2793   -3.9738   -4.0800 H         1 <1>         0.1276
     50 H50        -1.8000   -2.9852   -4.1314 H         1 <1>         0.0914
     51 H51        -2.4698   -3.5039   -2.5660 H         1 <1>         0.0914
@<TRIPOS>BOND
     1    1    2 1
     2    1   30 1
     3    1   31 1
     4    1   32 1
     5    2    3 1
     6    3   27 ar
     7    3    4 ar
     8    4    5 ar
     9    4   33 1
    10    5    6 ar
    11    5   34 1
    12    6    7 1
    13    6   26 ar
    14    7   25 1
    15    7    8 2
    16    8    9 1
    17    8   35 1
    18    9   10 2
    19    9   11 1
    20   11   24 ar
    21   11   12 ar
    22   12   13 1
    23   12   15 ar
    24   13   14 1
    25   14   36 1
    26   14   37 1
    27   14   38 1
    28   15   16 1
    29   15   18 ar
    30   16   17 1
    31   17   39 1
    32   17   40 1
    33   17   41 1
    34   18   19 1
    35   18   21 ar
    36   19   20 1
    37   20   42 1
    38   20   43 1
    39   20   44 1
    40   21   22 1
    41   21   24 ar
    42   22   23 1
    43   23   45 1
    44   23   46 1
    45   23   47 1
    46   24   25 1
    47   26   27 ar
    48   26   48 1
    49   27   28 1
    50   28   29 1
    51   29   49 1
    52   29   50 1
    53   29   51 1
@<TRIPOS>Similarity
1.0022
@<TRIPOS>ShapeSim
0.6721
@<TRIPOS>PharmSim
0.3301
# END
# Name:		O=C1N(CC2=CC=C(Cl)C=C2)C(/C=C/C3=CN=CC=C3)=NC4=CC=CC=C41
# Created and modified by SHAFTS on Thu Mar 11 05:28:35 2021

# 

@<TRIPOS>MOLECULE
O=C1N(CC2=CC=C(Cl)C=C2)C(/C=C/C3=CN=CC=C3)=NC4=CC=CC=C41
   43    46     0
SMALL
USER_CHARGE


@<TRIPOS>ATOM
      1 O1          4.1291    2.2430    2.0053 O.2       1 <1>        -0.4634
      2 C2          3.3148    2.5785    1.1651 C.2       1 <1>         0.1403
      3 C3          3.3751    3.9039    0.5313 C.ar      1 <1>         0.0532
      4 C4          4.3615    4.8302    0.8620 C.ar      1 <1>        -0.0641
      5 C5          4.3760    6.0599    0.2396 C.ar      1 <1>        -0.0907
      6 C6          3.4174    6.3816   -0.7125 C.ar      1 <1>        -0.0831
      7 C7          2.4338    5.4821   -1.0548 C.ar      1 <1>        -0.0507
      8 C8          2.3969    4.2275   -0.4378 C.ar      1 <1>        -0.0079
      9 N9          1.4509    3.3203   -0.7460 N.2       1 <1>        -0.3542
     10 C10         1.4128    2.1415   -0.1697 C.2       1 <1>         0.0497
     11 C11         0.3536    1.2073   -0.5575 C.2       1 <1>        -0.0001
     12 C12        -0.5539    1.5657   -1.4872 C.2       1 <1>        -0.0515
     13 C13        -1.6186    0.6267   -1.8771 C.ar      1 <1>        -0.0446
     14 C14        -2.5656    0.9846   -2.8471 C.ar      1 <1>        -0.0783
     15 C15        -3.5453    0.0653   -3.1768 C.ar      1 <1>        -0.0667
     16 C16        -3.5596   -1.1658   -2.5457 C.ar      1 <1>        -0.0409
     17 N17        -2.6557   -1.4767   -1.6359 N.ar      1 <1>        -0.3992
     18 C18        -1.6998   -0.6402   -1.2907 C.ar      1 <1>        -0.0298
     19 N19         2.3237    1.7433    0.7755 N.am      1 <1>        -0.2618
     20 C20         2.2163    0.4108    1.3748 C.3       1 <1>         0.0310
     21 C21         3.0112   -0.5736    0.5563 C.ar      1 <1>        -0.0798
     22 C22         2.4104   -1.2443   -0.4927 C.ar      1 <1>        -0.0893
     23 C23         3.1390   -2.1474   -1.2437 C.ar      1 <1>        -0.0709
     24 C24         4.4698   -2.3800   -0.9454 C.ar      1 <1>        -0.0126
     25 Cl25        5.3857   -3.5137   -1.8886 Cl        1 <1>        -0.1375
     26 C26         5.0705   -1.7085    0.1045 C.ar      1 <1>        -0.0691
     27 C27         4.3425   -0.8015    0.8512 C.ar      1 <1>        -0.0856
     28 H28         5.1098    4.5867    1.6018 H         1 <1>         0.1465
     29 H29         5.1396    6.7798    0.4947 H         1 <1>         0.1196
     30 H30         3.4440    7.3501   -1.1897 H         1 <1>         0.1403
     31 H31         1.6934    5.7438   -1.7963 H         1 <1>         0.1439
     32 H32         0.2997    0.2312   -0.0986 H         1 <1>         0.1484
     33 H33        -0.5001    2.5418   -1.9462 H         1 <1>         0.1660
     34 H34        -2.5314    1.9529   -3.3241 H         1 <1>         0.1440
     35 H35        -4.2916    0.3063   -3.9194 H         1 <1>         0.1275
     36 H36        -4.3240   -1.8845   -2.8018 H         1 <1>         0.2022
     37 H37        -0.9781   -0.9311   -0.5417 H         1 <1>         0.2069
     38 H38         2.6074    0.4373    2.3918 H         1 <1>         0.1416
     39 H39         1.1703    0.1050    1.3956 H         1 <1>         0.1416
     40 H40         1.3715   -1.0629   -0.7251 H         1 <1>         0.1282
     41 H41         2.6694   -2.6715   -2.0629 H         1 <1>         0.1360
     42 H42         6.1093   -1.8900    0.3379 H         1 <1>         0.1365
     43 H43         4.8114   -0.2770    1.6706 H         1 <1>         0.1383
@<TRIPOS>BOND
     1    1    2 2
     2    2   19 am
     3    2    3 1
     4    3    8 ar
     5    3    4 ar
     6    4    5 ar
     7    4   28 1
     8    5    6 ar
     9    5   29 1
    10    6    7 ar
    11    6   30 1
    12    7    8 ar
    13    7   31 1
    14    8    9 1
    15    9   10 2
    16   10   11 1
    17   10   19 1
    18   11   12 2
    19   11   32 1
    20   12   13 1
    21   12   33 1
    22   13   18 ar
    23   13   14 ar
    24   14   15 ar
    25   14   34 1
    26   15   16 ar
    27   15   35 1
    28   16   17 ar
    29   16   36 1
    30   17   18 ar
    31   18   37 1
    32   19   20 1
    33   20   21 1
    34   20   38 1
    35   20   39 1
    36   21   27 ar
    37   21   22 ar
    38   22   23 ar
    39   22   40 1
    40   23   24 ar
    41   23   41 1
    42   24   25 1
    43   24   26 ar
    44   26   27 ar
    45   26   42 1
    46   27   43 1
@<TRIPOS>Similarity
1.0022
@<TRIPOS>ShapeSim
0.6544
@<TRIPOS>PharmSim
0.3478
# END
# Name:		COC1=CC(OC)=CC(/C=C/C2=CC(OC)=C(OC)C=C2)=C1
# Created and modified by SHAFTS on Thu Mar 11 05:28:35 2021

# 

@<TRIPOS>MOLECULE
COC1=CC(OC)=CC(/C=C/C2=CC(OC)=C(OC)C=C2)=C1
   42    43     0
SMALL
USER_CHARGE


@<TRIPOS>ATOM
      1 C1          5.6218    1.6548    2.7363 C.3       1 <1>         0.0268
      2 O2          4.3777    1.9993    2.1233 O.3       1 <1>        -0.4137
      3 C3          3.7175    1.0084    1.4680 C.ar      1 <1>        -0.0124
      4 C4          2.5093    1.2762    0.8470 C.ar      1 <1>        -0.0493
      5 C5          1.8318    0.2568    0.1738 C.ar      1 <1>        -0.0743
      6 C6          0.5455    0.5366   -0.4893 C.2       1 <1>        -0.0806
      7 C7         -0.1040   -0.4448   -1.1357 C.2       1 <1>        -0.0869
      8 C8         -1.3898   -0.1651   -1.7987 C.ar      1 <1>        -0.0890
      9 C9         -1.9321    1.1220   -1.7606 C.ar      1 <1>        -0.0931
     10 C10        -3.1360    1.3813   -2.3818 C.ar      1 <1>        -0.0591
     11 C11        -3.8107    0.3672   -3.0451 C.ar      1 <1>         0.0291
     12 O12        -4.9969    0.6286   -3.6556 O.3       1 <1>        -0.4120
     13 C13        -5.4875    1.9682   -3.5735 C.3       1 <1>         0.0238
     14 C14        -3.2757   -0.9189   -3.0876 C.ar      1 <1>         0.0316
     15 O15        -3.9400   -1.9103   -3.7398 O.3       1 <1>        -0.4115
     16 C16        -3.3335   -3.2043   -3.7434 C.3       1 <1>         0.0239
     17 C17        -2.0676   -1.1857   -2.4723 C.ar      1 <1>        -0.0518
     18 C18         2.3774   -1.0282    0.1308 C.ar      1 <1>        -0.0493
     19 C19         3.5862   -1.2859    0.7550 C.ar      1 <1>        -0.0124
     20 O20         4.1181   -2.5359    0.7138 O.3       1 <1>        -0.4137
     21 C21         5.3678   -2.7313    1.3787 C.3       1 <1>         0.0268
     22 C22         4.2583   -0.2686    1.4176 C.ar      1 <1>        -0.0427
     23 H23         6.0425    2.5343    3.2237 H         1 <1>         0.1218
     24 H24         5.4573    0.8726    3.4774 H         1 <1>         0.0929
     25 H25         6.3143    1.2947    1.9755 H         1 <1>         0.0929
     26 H26         2.0912    2.2713    0.8833 H         1 <1>         0.1307
     27 H27         0.1254    1.5309   -0.4552 H         1 <1>         0.1289
     28 H28         0.3161   -1.4392   -1.1699 H         1 <1>         0.1302
     29 H29        -1.4091    1.9135   -1.2446 H         1 <1>         0.1254
     30 H30        -3.5545    2.3765   -2.3515 H         1 <1>         0.1264
     31 H31        -6.4388    2.0397   -4.1008 H         1 <1>         0.1194
     32 H32        -5.6305    2.2393   -2.5275 H         1 <1>         0.0904
     33 H33        -4.7673    2.6475   -4.0298 H         1 <1>         0.0904
     34 H34        -3.9649   -3.8999   -4.2961 H         1 <1>         0.1194
     35 H35        -2.3547   -3.1454   -4.2193 H         1 <1>         0.0905
     36 H36        -3.2184   -3.5544   -2.7176 H         1 <1>         0.0905
     37 H37        -1.6518   -2.1819   -2.5049 H         1 <1>         0.1306
     38 H38         1.8570   -1.8197   -0.3882 H         1 <1>         0.1307
     39 H39         6.1204   -2.0781    0.9372 H         1 <1>         0.0929
     40 H40         5.2572   -2.4948    2.4370 H         1 <1>         0.0929
     41 H41         5.6790   -3.7702    1.2692 H         1 <1>         0.1218
     42 H42         5.2009   -0.4735    1.9033 H         1 <1>         0.1008
@<TRIPOS>BOND
     1    1    2 1
     2    1   23 1
     3    1   24 1
     4    1   25 1
     5    2    3 1
     6    3   22 ar
     7    3    4 ar
     8    4    5 ar
     9    4   26 1
    10    5    6 1
    11    5   18 ar
    12    6    7 2
    13    6   27 1
    14    7    8 1
    15    7   28 1
    16    8   17 ar
    17    8    9 ar
    18    9   10 ar
    19    9   29 1
    20   10   11 ar
    21   10   30 1
    22   11   12 1
    23   11   14 ar
    24   12   13 1
    25   13   31 1
    26   13   32 1
    27   13   33 1
    28   14   15 1
    29   14   17 ar
    30   15   16 1
    31   16   34 1
    32   16   35 1
    33   16   36 1
    34   17   37 1
    35   18   19 ar
    36   18   38 1
    37   19   20 1
    38   19   22 ar
    39   20   21 1
    40   21   39 1
    41   21   40 1
    42   21   41 1
    43   22   42 1
@<TRIPOS>Similarity
1.0015
@<TRIPOS>ShapeSim
0.6968
@<TRIPOS>PharmSim
0.3047
# END
# Name:		OC1=CC=C(C(C(O)=C(C2=CC(O)=C(O)C=C2)O3)=O)C3=C1
# Created and modified by SHAFTS on Thu Mar 11 05:28:35 2021

# 

@<TRIPOS>MOLECULE
OC1=CC=C(C(C(O)=C(C2=CC(O)=C(O)C=C2)O3)=O)C3=C1
   30    32     0
SMALL
USER_CHARGE


@<TRIPOS>ATOM
      1 O1         -2.7072    1.3159    1.1334 O.2       1 <1>        -0.4958
      2 C2         -1.8402    0.9004    0.3815 C.2       1 <1>         0.0861
      3 C3         -2.1528    0.5044   -1.0034 C.ar      1 <1>         0.0070
      4 C4         -3.4517    0.5908   -1.5054 C.ar      1 <1>        -0.0904
      5 C5         -3.7070    0.2159   -2.7941 C.ar      1 <1>        -0.0682
      6 C6         -2.6783   -0.2520   -3.6082 C.ar      1 <1>        -0.0671
      7 O7         -2.9469   -0.6215   -4.8867 O.3       1 <1>        -0.5672
      8 C8         -1.3836   -0.3431   -3.1247 C.ar      1 <1>        -0.0287
      9 C9         -1.1082    0.0338   -1.8181 C.ar      1 <1>         0.0240
     10 O10         0.1451   -0.0458   -1.3253 O.3       1 <1>        -0.3376
     11 C11         0.4457    0.3115   -0.0652 C.2       1 <1>         0.0857
     12 C12         1.8422    0.1926    0.3923 C.ar      1 <1>        -0.0079
     13 C13         2.5615   -0.9805    0.1493 C.ar      1 <1>        -0.0621
     14 C14         3.8673   -1.0896    0.5779 C.ar      1 <1>        -0.0531
     15 C15         4.4703   -0.0366    1.2509 C.ar      1 <1>        -0.0023
     16 O16         5.7575   -0.1494    1.6712 O.3       1 <1>        -0.4306
     17 C17         3.7590    1.1370    1.4965 C.ar      1 <1>         0.0057
     18 O18         4.3536    2.1670    2.1561 O.3       1 <1>        -0.4302
     19 C19         2.4521    1.2556    1.0655 C.ar      1 <1>        -0.0265
     20 C20        -0.4917    0.7853    0.8042 C.2       1 <1>         0.0845
     21 O21        -0.1378    1.1346    2.0709 O.3       1 <1>        -0.4195
     22 H22        -4.2525    0.9524   -0.8774 H         1 <1>         0.1335
     23 H23        -4.7121    0.2824   -3.1836 H         1 <1>         0.0928
     24 H24        -0.5913   -0.7070   -3.7622 H         1 <1>         0.1026
     25 H25         2.0944   -1.8017   -0.3741 H         1 <1>         0.1427
     26 H26         4.4220   -1.9969    0.3898 H         1 <1>         0.1366
     27 H27         6.4104    0.1491    1.0234 H         1 <1>         0.3567
     28 H28         4.8058    2.7958    1.5773 H         1 <1>         0.3565
     29 H29         1.8999    2.1643    1.2552 H         1 <1>         0.1523
     30 H30        -0.8727    1.4588    2.6094 H         1 <1>         0.3704
@<TRIPOS>BOND
     1    1    2 2
     2    2   20 1
     3    2    3 1
     4    3    9 ar
     5    3    4 ar
     6    4    5 ar
     7    4   22 1
     8    5    6 ar
     9    5   23 1
    10    6    7 1
    11    6    8 ar
    12    8    9 ar
    13    8   24 1
    14    9   10 1
    15   10   11 1
    16   11   12 1
    17   11   20 2
    18   12   19 ar
    19   12   13 ar
    20   13   14 ar
    21   13   25 1
    22   14   15 ar
    23   14   26 1
    24   15   16 1
    25   15   17 ar
    26   16   27 1
    27   17   18 1
    28   17   19 ar
    29   18   28 1
    30   19   29 1
    31   20   21 1
    32   21   30 1
@<TRIPOS>Similarity
1.0012
@<TRIPOS>ShapeSim
0.7472
@<TRIPOS>PharmSim
0.2539
# END
# Name:		O=C1C(O)=C(C2=CC=C(O)C(O)=C2)OC3=CC(O)=CC=C13
# Created and modified by SHAFTS on Thu Mar 11 05:28:35 2021

# 

@<TRIPOS>MOLECULE
O=C1C(O)=C(C2=CC=C(O)C(O)=C2)OC3=CC(O)=CC=C13
   30    32     0
SMALL
USER_CHARGE


@<TRIPOS>ATOM
      1 O1         -2.7072    1.3159    1.1334 O.2       1 <1>        -0.4958
      2 C2         -1.8402    0.9004    0.3815 C.2       1 <1>         0.0861
      3 C3         -2.1528    0.5044   -1.0034 C.ar      1 <1>         0.0070
      4 C4         -3.4517    0.5908   -1.5054 C.ar      1 <1>        -0.0904
      5 C5         -3.7070    0.2159   -2.7941 C.ar      1 <1>        -0.0682
      6 C6         -2.6783   -0.2520   -3.6082 C.ar      1 <1>        -0.0671
      7 O7         -2.9469   -0.6215   -4.8867 O.3       1 <1>        -0.5672
      8 C8         -1.3836   -0.3431   -3.1247 C.ar      1 <1>        -0.0287
      9 C9         -1.1082    0.0338   -1.8181 C.ar      1 <1>         0.0240
     10 O10         0.1451   -0.0458   -1.3253 O.3       1 <1>        -0.3376
     11 C11         0.4457    0.3115   -0.0652 C.2       1 <1>         0.0857
     12 C12         1.8422    0.1926    0.3923 C.ar      1 <1>        -0.0079
     13 C13         2.5615   -0.9805    0.1493 C.ar      1 <1>        -0.0621
     14 C14         3.8673   -1.0896    0.5779 C.ar      1 <1>        -0.0531
     15 C15         4.4703   -0.0366    1.2509 C.ar      1 <1>        -0.0023
     16 O16         5.7575   -0.1494    1.6712 O.3       1 <1>        -0.4306
     17 C17         3.7590    1.1370    1.4965 C.ar      1 <1>         0.0057
     18 O18         4.3536    2.1670    2.1561 O.3       1 <1>        -0.4302
     19 C19         2.4521    1.2556    1.0655 C.ar      1 <1>        -0.0265
     20 C20        -0.4917    0.7853    0.8042 C.2       1 <1>         0.0845
     21 O21        -0.1378    1.1346    2.0709 O.3       1 <1>        -0.4195
     22 H22        -4.2525    0.9524   -0.8774 H         1 <1>         0.1335
     23 H23        -4.7121    0.2824   -3.1836 H         1 <1>         0.0928
     24 H24        -0.5913   -0.7070   -3.7622 H         1 <1>         0.1026
     25 H25         2.0944   -1.8017   -0.3741 H         1 <1>         0.1427
     26 H26         4.4220   -1.9969    0.3898 H         1 <1>         0.1366
     27 H27         6.4104    0.1491    1.0234 H         1 <1>         0.3567
     28 H28         4.8058    2.7958    1.5773 H         1 <1>         0.3565
     29 H29         1.8999    2.1643    1.2552 H         1 <1>         0.1523
     30 H30        -0.8727    1.4588    2.6094 H         1 <1>         0.3704
@<TRIPOS>BOND
     1    1    2 2
     2    2   20 1
     3    2    3 1
     4    3    9 ar
     5    3    4 ar
     6    4    5 ar
     7    4   22 1
     8    5    6 ar
     9    5   23 1
    10    6    7 1
    11    6    8 ar
    12    8    9 ar
    13    8   24 1
    14    9   10 1
    15   10   11 1
    16   11   12 1
    17   11   20 2
    18   12   19 ar
    19   12   13 ar
    20   13   14 ar
    21   13   25 1
    22   14   15 ar
    23   14   26 1
    24   15   16 1
    25   15   17 ar
    26   16   27 1
    27   17   18 1
    28   17   19 ar
    29   18   28 1
    30   19   29 1
    31   20   21 1
    32   21   30 1
@<TRIPOS>Similarity
1.0012
@<TRIPOS>ShapeSim
0.7472
@<TRIPOS>PharmSim
0.2539
# END
# Name:		O=C1C(O)=C(C2=CC=C(O)C(O)=C2)OC3=CC(O)=CC=C13
# Created and modified by SHAFTS on Thu Mar 11 05:28:35 2021

# 

@<TRIPOS>MOLECULE
O=C1C(O)=C(C2=CC=C(O)C(O)=C2)OC3=CC(O)=CC=C13
   30    32     0
SMALL
USER_CHARGE


@<TRIPOS>ATOM
      1 O1         -2.7072    1.3159    1.1334 O.2       1 <1>        -0.4958
      2 C2         -1.8402    0.9004    0.3815 C.2       1 <1>         0.0861
      3 C3         -2.1528    0.5044   -1.0034 C.ar      1 <1>         0.0070
      4 C4         -3.4517    0.5908   -1.5054 C.ar      1 <1>        -0.0904
      5 C5         -3.7070    0.2159   -2.7941 C.ar      1 <1>        -0.0682
      6 C6         -2.6783   -0.2520   -3.6082 C.ar      1 <1>        -0.0671
      7 O7         -2.9469   -0.6215   -4.8867 O.3       1 <1>        -0.5672
      8 C8         -1.3836   -0.3431   -3.1247 C.ar      1 <1>        -0.0287
      9 C9         -1.1082    0.0338   -1.8181 C.ar      1 <1>         0.0240
     10 O10         0.1451   -0.0458   -1.3253 O.3       1 <1>        -0.3376
     11 C11         0.4457    0.3115   -0.0652 C.2       1 <1>         0.0857
     12 C12         1.8422    0.1926    0.3923 C.ar      1 <1>        -0.0079
     13 C13         2.5615   -0.9805    0.1493 C.ar      1 <1>        -0.0621
     14 C14         3.8673   -1.0896    0.5779 C.ar      1 <1>        -0.0531
     15 C15         4.4703   -0.0366    1.2509 C.ar      1 <1>        -0.0023
     16 O16         5.7575   -0.1494    1.6712 O.3       1 <1>        -0.4306
     17 C17         3.7590    1.1370    1.4965 C.ar      1 <1>         0.0057
     18 O18         4.3536    2.1670    2.1561 O.3       1 <1>        -0.4302
     19 C19         2.4521    1.2556    1.0655 C.ar      1 <1>        -0.0265
     20 C20        -0.4917    0.7853    0.8042 C.2       1 <1>         0.0845
     21 O21        -0.1378    1.1346    2.0709 O.3       1 <1>        -0.4195
     22 H22        -4.2525    0.9524   -0.8774 H         1 <1>         0.1335
     23 H23        -4.7121    0.2824   -3.1836 H         1 <1>         0.0928
     24 H24        -0.5913   -0.7070   -3.7622 H         1 <1>         0.1026
     25 H25         2.0944   -1.8017   -0.3741 H         1 <1>         0.1427
     26 H26         4.4220   -1.9969    0.3898 H         1 <1>         0.1366
     27 H27         6.4104    0.1491    1.0234 H         1 <1>         0.3567
     28 H28         4.8058    2.7958    1.5773 H         1 <1>         0.3565
     29 H29         1.8999    2.1643    1.2552 H         1 <1>         0.1523
     30 H30        -0.8727    1.4588    2.6094 H         1 <1>         0.3704
@<TRIPOS>BOND
     1    1    2 2
     2    2   20 1
     3    2    3 1
     4    3    9 ar
     5    3    4 ar
     6    4    5 ar
     7    4   22 1
     8    5    6 ar
     9    5   23 1
    10    6    7 1
    11    6    8 ar
    12    8    9 ar
    13    8   24 1
    14    9   10 1
    15   10   11 1
    16   11   12 1
    17   11   20 2
    18   12   19 ar
    19   12   13 ar
    20   13   14 ar
    21   13   25 1
    22   14   15 ar
    23   14   26 1
    24   15   16 1
    25   15   17 ar
    26   16   27 1
    27   17   18 1
    28   17   19 ar
    29   18   28 1
    30   19   29 1
    31   20   21 1
    32   21   30 1
@<TRIPOS>Similarity
1.0012
@<TRIPOS>ShapeSim
0.7472
@<TRIPOS>PharmSim
0.2539
# END
# Name:		C1=CC(=C(C=C1C2=C(C(=O)C3=C(O2)C=C(C=C3)O)O)O)O
# Created and modified by SHAFTS on Thu Mar 11 05:28:35 2021

# 

@<TRIPOS>MOLECULE
C1=CC(=C(C=C1C2=C(C(=O)C3=C(O2)C=C(C=C3)O)O)O)O
   30    32     0
SMALL
USER_CHARGE


@<TRIPOS>ATOM
      1 O1         -2.7072    1.3159    1.1334 O.2       1 <1>        -0.4958
      2 C2         -1.8402    0.9004    0.3815 C.2       1 <1>         0.0861
      3 C3         -2.1528    0.5044   -1.0034 C.ar      1 <1>         0.0070
      4 C4         -3.4517    0.5908   -1.5054 C.ar      1 <1>        -0.0904
      5 C5         -3.7070    0.2159   -2.7941 C.ar      1 <1>        -0.0682
      6 C6         -2.6783   -0.2520   -3.6082 C.ar      1 <1>        -0.0671
      7 O7         -2.9469   -0.6215   -4.8867 O.3       1 <1>        -0.5672
      8 C8         -1.3836   -0.3431   -3.1247 C.ar      1 <1>        -0.0287
      9 C9         -1.1082    0.0338   -1.8181 C.ar      1 <1>         0.0240
     10 O10         0.1451   -0.0458   -1.3253 O.3       1 <1>        -0.3376
     11 C11         0.4457    0.3115   -0.0652 C.2       1 <1>         0.0857
     12 C12         1.8422    0.1926    0.3923 C.ar      1 <1>        -0.0079
     13 C13         2.5615   -0.9805    0.1493 C.ar      1 <1>        -0.0621
     14 C14         3.8673   -1.0896    0.5779 C.ar      1 <1>        -0.0531
     15 C15         4.4703   -0.0366    1.2509 C.ar      1 <1>        -0.0023
     16 O16         5.7575   -0.1494    1.6712 O.3       1 <1>        -0.4306
     17 C17         3.7590    1.1370    1.4965 C.ar      1 <1>         0.0057
     18 O18         4.3536    2.1670    2.1561 O.3       1 <1>        -0.4302
     19 C19         2.4521    1.2556    1.0655 C.ar      1 <1>        -0.0265
     20 C20        -0.4917    0.7853    0.8042 C.2       1 <1>         0.0845
     21 O21        -0.1378    1.1346    2.0709 O.3       1 <1>        -0.4195
     22 H22        -4.2525    0.9524   -0.8774 H         1 <1>         0.1335
     23 H23        -4.7121    0.2824   -3.1836 H         1 <1>         0.0928
     24 H24        -0.5913   -0.7070   -3.7622 H         1 <1>         0.1026
     25 H25         2.0944   -1.8017   -0.3741 H         1 <1>         0.1427
     26 H26         4.4220   -1.9969    0.3898 H         1 <1>         0.1366
     27 H27         6.4104    0.1491    1.0234 H         1 <1>         0.3567
     28 H28         4.8058    2.7958    1.5773 H         1 <1>         0.3565
     29 H29         1.8999    2.1643    1.2552 H         1 <1>         0.1523
     30 H30        -0.8727    1.4588    2.6094 H         1 <1>         0.3704
@<TRIPOS>BOND
     1    1    2 2
     2    2   20 1
     3    2    3 1
     4    3    9 ar
     5    3    4 ar
     6    4    5 ar
     7    4   22 1
     8    5    6 ar
     9    5   23 1
    10    6    7 1
    11    6    8 ar
    12    8    9 ar
    13    8   24 1
    14    9   10 1
    15   10   11 1
    16   11   12 1
    17   11   20 2
    18   12   19 ar
    19   12   13 ar
    20   13   14 ar
    21   13   25 1
    22   14   15 ar
    23   14   26 1
    24   15   16 1
    25   15   17 ar
    26   16   27 1
    27   17   18 1
    28   17   19 ar
    29   18   28 1
    30   19   29 1
    31   20   21 1
    32   21   30 1
@<TRIPOS>Similarity
1.0012
@<TRIPOS>ShapeSim
0.7472
@<TRIPOS>PharmSim
0.2539
# END
# Name:		O=C1C(O)=C(C2=CC=C(O)C(O)=C2)OC3=CC(O)=CC=C13
# Created and modified by SHAFTS on Thu Mar 11 05:28:35 2021

# 

@<TRIPOS>MOLECULE
O=C1C(O)=C(C2=CC=C(O)C(O)=C2)OC3=CC(O)=CC=C13
   30    32     0
SMALL
USER_CHARGE


@<TRIPOS>ATOM
      1 O1         -2.7072    1.3159    1.1334 O.2       1 <1>        -0.4958
      2 C2         -1.8402    0.9004    0.3815 C.2       1 <1>         0.0861
      3 C3         -2.1528    0.5044   -1.0034 C.ar      1 <1>         0.0070
      4 C4         -3.4517    0.5908   -1.5054 C.ar      1 <1>        -0.0904
      5 C5         -3.7070    0.2159   -2.7941 C.ar      1 <1>        -0.0682
      6 C6         -2.6783   -0.2520   -3.6082 C.ar      1 <1>        -0.0671
      7 O7         -2.9469   -0.6215   -4.8867 O.3       1 <1>        -0.5672
      8 C8         -1.3836   -0.3431   -3.1247 C.ar      1 <1>        -0.0287
      9 C9         -1.1082    0.0338   -1.8181 C.ar      1 <1>         0.0240
     10 O10         0.1451   -0.0458   -1.3253 O.3       1 <1>        -0.3376
     11 C11         0.4457    0.3115   -0.0652 C.2       1 <1>         0.0857
     12 C12         1.8422    0.1926    0.3923 C.ar      1 <1>        -0.0079
     13 C13         2.5615   -0.9805    0.1493 C.ar      1 <1>        -0.0621
     14 C14         3.8673   -1.0896    0.5779 C.ar      1 <1>        -0.0531
     15 C15         4.4703   -0.0366    1.2509 C.ar      1 <1>        -0.0023
     16 O16         5.7575   -0.1494    1.6712 O.3       1 <1>        -0.4306
     17 C17         3.7590    1.1370    1.4965 C.ar      1 <1>         0.0057
     18 O18         4.3536    2.1670    2.1561 O.3       1 <1>        -0.4302
     19 C19         2.4521    1.2556    1.0655 C.ar      1 <1>        -0.0265
     20 C20        -0.4917    0.7853    0.8042 C.2       1 <1>         0.0845
     21 O21        -0.1378    1.1346    2.0709 O.3       1 <1>        -0.4195
     22 H22        -4.2525    0.9524   -0.8774 H         1 <1>         0.1335
     23 H23        -4.7121    0.2824   -3.1836 H         1 <1>         0.0928
     24 H24        -0.5913   -0.7070   -3.7622 H         1 <1>         0.1026
     25 H25         2.0944   -1.8017   -0.3741 H         1 <1>         0.1427
     26 H26         4.4220   -1.9969    0.3898 H         1 <1>         0.1366
     27 H27         6.4104    0.1491    1.0234 H         1 <1>         0.3567
     28 H28         4.8058    2.7958    1.5773 H         1 <1>         0.3565
     29 H29         1.8999    2.1643    1.2552 H         1 <1>         0.1523
     30 H30        -0.8727    1.4588    2.6094 H         1 <1>         0.3704
@<TRIPOS>BOND
     1    1    2 2
     2    2   20 1
     3    2    3 1
     4    3    9 ar
     5    3    4 ar
     6    4    5 ar
     7    4   22 1
     8    5    6 ar
     9    5   23 1
    10    6    7 1
    11    6    8 ar
    12    8    9 ar
    13    8   24 1
    14    9   10 1
    15   10   11 1
    16   11   12 1
    17   11   20 2
    18   12   19 ar
    19   12   13 ar
    20   13   14 ar
    21   13   25 1
    22   14   15 ar
    23   14   26 1
    24   15   16 1
    25   15   17 ar
    26   16   27 1
    27   17   18 1
    28   17   19 ar
    29   18   28 1
    30   19   29 1
    31   20   21 1
    32   21   30 1
@<TRIPOS>Similarity
1.0012
@<TRIPOS>ShapeSim
0.7472
@<TRIPOS>PharmSim
0.2539
# END
# Name:		C1=CC(=C(C=C1C2=C(C(=O)C3=C(O2)C=C(C=C3)O)O)O)O
# Created and modified by SHAFTS on Thu Mar 11 05:28:35 2021

# 

@<TRIPOS>MOLECULE
C1=CC(=C(C=C1C2=C(C(=O)C3=C(O2)C=C(C=C3)O)O)O)O
   30    32     0
SMALL
USER_CHARGE


@<TRIPOS>ATOM
      1 O1         -2.7072    1.3159    1.1334 O.2       1 <1>        -0.4958
      2 C2         -1.8402    0.9004    0.3815 C.2       1 <1>         0.0861
      3 C3         -2.1528    0.5044   -1.0034 C.ar      1 <1>         0.0070
      4 C4         -3.4517    0.5908   -1.5054 C.ar      1 <1>        -0.0904
      5 C5         -3.7070    0.2159   -2.7941 C.ar      1 <1>        -0.0682
      6 C6         -2.6783   -0.2520   -3.6082 C.ar      1 <1>        -0.0671
      7 O7         -2.9469   -0.6215   -4.8867 O.3       1 <1>        -0.5672
      8 C8         -1.3836   -0.3431   -3.1247 C.ar      1 <1>        -0.0287
      9 C9         -1.1082    0.0338   -1.8181 C.ar      1 <1>         0.0240
     10 O10         0.1451   -0.0458   -1.3253 O.3       1 <1>        -0.3376
     11 C11         0.4457    0.3115   -0.0652 C.2       1 <1>         0.0857
     12 C12         1.8422    0.1926    0.3923 C.ar      1 <1>        -0.0079
     13 C13         2.5615   -0.9805    0.1493 C.ar      1 <1>        -0.0621
     14 C14         3.8673   -1.0896    0.5779 C.ar      1 <1>        -0.0531
     15 C15         4.4703   -0.0366    1.2509 C.ar      1 <1>        -0.0023
     16 O16         5.7575   -0.1494    1.6712 O.3       1 <1>        -0.4306
     17 C17         3.7590    1.1370    1.4965 C.ar      1 <1>         0.0057
     18 O18         4.3536    2.1670    2.1561 O.3       1 <1>        -0.4302
     19 C19         2.4521    1.2556    1.0655 C.ar      1 <1>        -0.0265
     20 C20        -0.4917    0.7853    0.8042 C.2       1 <1>         0.0845
     21 O21        -0.1378    1.1346    2.0709 O.3       1 <1>        -0.4195
     22 H22        -4.2525    0.9524   -0.8774 H         1 <1>         0.1335
     23 H23        -4.7121    0.2824   -3.1836 H         1 <1>         0.0928
     24 H24        -0.5913   -0.7070   -3.7622 H         1 <1>         0.1026
     25 H25         2.0944   -1.8017   -0.3741 H         1 <1>         0.1427
     26 H26         4.4220   -1.9969    0.3898 H         1 <1>         0.1366
     27 H27         6.4104    0.1491    1.0234 H         1 <1>         0.3567
     28 H28         4.8058    2.7958    1.5773 H         1 <1>         0.3565
     29 H29         1.8999    2.1643    1.2552 H         1 <1>         0.1523
     30 H30        -0.8727    1.4588    2.6094 H         1 <1>         0.3704
@<TRIPOS>BOND
     1    1    2 2
     2    2   20 1
     3    2    3 1
     4    3    9 ar
     5    3    4 ar
     6    4    5 ar
     7    4   22 1
     8    5    6 ar
     9    5   23 1
    10    6    7 1
    11    6    8 ar
    12    8    9 ar
    13    8   24 1
    14    9   10 1
    15   10   11 1
    16   11   12 1
    17   11   20 2
    18   12   19 ar
    19   12   13 ar
    20   13   14 ar
    21   13   25 1
    22   14   15 ar
    23   14   26 1
    24   15   16 1
    25   15   17 ar
    26   16   27 1
    27   17   18 1
    28   17   19 ar
    29   18   28 1
    30   19   29 1
    31   20   21 1
    32   21   30 1
@<TRIPOS>Similarity
1.0012
@<TRIPOS>ShapeSim
0.7472
@<TRIPOS>PharmSim
0.2539
# END
# Name:		C1=CC(=C(C=C1C2=C(C(=O)C3=C(O2)C=C(C=C3)O)O)O)O
# Created and modified by SHAFTS on Thu Mar 11 05:28:35 2021

# 

@<TRIPOS>MOLECULE
C1=CC(=C(C=C1C2=C(C(=O)C3=C(O2)C=C(C=C3)O)O)O)O
   30    32     0
SMALL
USER_CHARGE


@<TRIPOS>ATOM
      1 O1         -2.7072    1.3159    1.1334 O.2       1 <1>        -0.4958
      2 C2         -1.8402    0.9004    0.3815 C.2       1 <1>         0.0861
      3 C3         -2.1528    0.5044   -1.0034 C.ar      1 <1>         0.0070
      4 C4         -3.4517    0.5908   -1.5054 C.ar      1 <1>        -0.0904
      5 C5         -3.7070    0.2159   -2.7941 C.ar      1 <1>        -0.0682
      6 C6         -2.6783   -0.2520   -3.6082 C.ar      1 <1>        -0.0671
      7 O7         -2.9469   -0.6215   -4.8867 O.3       1 <1>        -0.5672
      8 C8         -1.3836   -0.3431   -3.1247 C.ar      1 <1>        -0.0287
      9 C9         -1.1082    0.0338   -1.8181 C.ar      1 <1>         0.0240
     10 O10         0.1451   -0.0458   -1.3253 O.3       1 <1>        -0.3376
     11 C11         0.4457    0.3115   -0.0652 C.2       1 <1>         0.0857
     12 C12         1.8422    0.1926    0.3923 C.ar      1 <1>        -0.0079
     13 C13         2.5615   -0.9805    0.1493 C.ar      1 <1>        -0.0621
     14 C14         3.8673   -1.0896    0.5779 C.ar      1 <1>        -0.0531
     15 C15         4.4703   -0.0366    1.2509 C.ar      1 <1>        -0.0023
     16 O16         5.7575   -0.1494    1.6712 O.3       1 <1>        -0.4306
     17 C17         3.7590    1.1370    1.4965 C.ar      1 <1>         0.0057
     18 O18         4.3536    2.1670    2.1561 O.3       1 <1>        -0.4302
     19 C19         2.4521    1.2556    1.0655 C.ar      1 <1>        -0.0265
     20 C20        -0.4917    0.7853    0.8042 C.2       1 <1>         0.0845
     21 O21        -0.1378    1.1346    2.0709 O.3       1 <1>        -0.4195
     22 H22        -4.2525    0.9524   -0.8774 H         1 <1>         0.1335
     23 H23        -4.7121    0.2824   -3.1836 H         1 <1>         0.0928
     24 H24        -0.5913   -0.7070   -3.7622 H         1 <1>         0.1026
     25 H25         2.0944   -1.8017   -0.3741 H         1 <1>         0.1427
     26 H26         4.4220   -1.9969    0.3898 H         1 <1>         0.1366
     27 H27         6.4104    0.1491    1.0234 H         1 <1>         0.3567
     28 H28         4.8058    2.7958    1.5773 H         1 <1>         0.3565
     29 H29         1.8999    2.1643    1.2552 H         1 <1>         0.1523
     30 H30        -0.8727    1.4588    2.6094 H         1 <1>         0.3704
@<TRIPOS>BOND
     1    1    2 2
     2    2   20 1
     3    2    3 1
     4    3    9 ar
     5    3    4 ar
     6    4    5 ar
     7    4   22 1
     8    5    6 ar
     9    5   23 1
    10    6    7 1
    11    6    8 ar
    12    8    9 ar
    13    8   24 1
    14    9   10 1
    15   10   11 1
    16   11   12 1
    17   11   20 2
    18   12   19 ar
    19   12   13 ar
    20   13   14 ar
    21   13   25 1
    22   14   15 ar
    23   14   26 1
    24   15   16 1
    25   15   17 ar
    26   16   27 1
    27   17   18 1
    28   17   19 ar
    29   18   28 1
    30   19   29 1
    31   20   21 1
    32   21   30 1
@<TRIPOS>Similarity
1.0012
@<TRIPOS>ShapeSim
0.7472
@<TRIPOS>PharmSim
0.2539
# END
# Name:		C1CC(CN(C1)C2=C3C(=CNC3=NC=C2Br)NC(=O)C4CC4)N
# Created and modified by SHAFTS on Thu Mar 11 05:28:35 2021

# 

@<TRIPOS>MOLECULE
C1CC(CN(C1)C2=C3C(=CNC3=NC=C2Br)NC(=O)C4CC4)N
   44    47     0
SMALL
USER_CHARGE


@<TRIPOS>ATOM
      1 N1          1.8198   -6.3583   -1.7607 N.4       1 <1>         0.4435
      2 H2          2.7499   -6.7461   -1.8119 H         1 <1>         0.1432
      3 H3          1.4774   -6.4295   -0.8143 H         1 <1>         0.1509
      4 H4          1.2079   -6.8692   -2.3791 H         1 <1>         0.1509
      5 C5          1.8553   -4.9461   -2.1636 C.3       1 <1>        -0.1437
      6 H6          0.8406   -4.5490   -2.1902 H         1 <1>         0.1050
      7 C7          2.4877   -4.8266   -3.5530 C.3       1 <1>        -0.0712
      8 C8          2.5756   -3.3477   -3.9396 C.3       1 <1>        -0.0744
      9 C9          3.3891   -2.5968   -2.8831 C.3       1 <1>        -0.1673
     10 N10         2.7429   -2.7409   -1.5723 N.3       1 <1>         0.3633
     11 C11         3.3826   -1.9634   -0.6132 C.ar      1 <1>        -0.1781
     12 C12         2.7124   -0.9121    0.0305 C.ar      1 <1>         0.0038
     13 C13         1.3537   -0.3665   -0.0474 C.2       1 <1>        -0.0115
     14 N14         0.3161   -0.8165   -0.8826 N.am      1 <1>        -0.3047
     15 C15        -0.8430   -0.1318   -0.9460 C.2       1 <1>         0.0788
     16 O16        -1.0238    0.8232   -0.2199 O.2       1 <1>        -0.4821
     17 C17        -1.9145   -0.5524   -1.9186 C.3       1 <1>         0.0255
     18 C18        -2.1696    0.3543   -3.1243 C.3       1 <1>        -0.0482
     19 C19        -3.1854    0.2973   -1.9805 C.3       1 <1>        -0.0468
     20 C20         1.2926    0.6521    0.8317 C.2       1 <1>        -0.0170
     21 N21         2.5058    0.7912    1.4644 N.pl3     1 <1>        -0.3185
     22 C22         3.3902   -0.1515    0.9983 C.ar      1 <1>         0.0264
     23 N23         4.6577   -0.4259    1.2872 N.ar      1 <1>        -0.3525
     24 C24         5.3104   -1.4038    0.6930 C.ar      1 <1>        -0.0007
     25 C25         4.7097   -2.2000   -0.2657 C.ar      1 <1>        -0.0075
     26 Br26        5.6807   -3.5949   -1.0947 Br        1 <1>        -0.1014
     27 C27         2.6896   -4.1488   -1.1585 C.3       1 <1>        -0.1767
     28 H28         3.4881   -5.2589   -3.5362 H         1 <1>         0.0620
     29 H29         1.8734   -5.3582   -4.2797 H         1 <1>         0.0691
     30 H30         3.0640   -3.2536   -4.9096 H         1 <1>         0.0738
     31 H31         1.5723   -2.9255   -3.9943 H         1 <1>         0.0667
     32 H32         4.3967   -3.0103   -2.8387 H         1 <1>         0.0415
     33 H33         3.4415   -1.5406   -3.1479 H         1 <1>         0.0630
     34 H34         0.4345   -1.6198   -1.4133 H         1 <1>         0.3372
     35 H35        -2.0200   -1.6272   -2.0659 H         1 <1>         0.0959
     36 H36        -1.5625    1.2551   -3.2139 H         1 <1>         0.0621
     37 H37        -2.4434   -0.1240   -4.0647 H         1 <1>         0.0693
     38 H38        -4.1270   -0.2185   -2.1690 H         1 <1>         0.0713
     39 H39        -3.2466    1.1603   -1.3175 H         1 <1>         0.0713
     40 H40         0.4229    1.2662    1.0126 H         1 <1>         0.2331
     41 H41         2.7074    1.4566    2.1408 H         1 <1>         0.3538
     42 H42         6.3401   -1.5887    0.9614 H         1 <1>         0.2398
     43 H43         2.2341   -4.2200   -0.1708 H         1 <1>         0.0640
     44 H44         3.7004   -4.5551   -1.1222 H         1 <1>         0.0568
@<TRIPOS>BOND
     1    1    2 1
     2    1    3 1
     3    1    4 1
     4    1    5 1
     5    5    6 1
     6    5   27 1
     7    5    7 1
     8    7    8 1
     9    7   28 1
    10    7   29 1
    11    8    9 1
    12    8   30 1
    13    8   31 1
    14    9   10 1
    15    9   32 1
    16    9   33 1
    17   10   11 1
    18   10   27 1
    19   11   25 ar
    20   11   12 ar
    21   12   22 ar
    22   12   13 1
    23   13   14 1
    24   13   20 2
    25   14   15 am
    26   14   34 1
    27   15   16 2
    28   15   17 1
    29   17   19 1
    30   17   18 1
    31   17   35 1
    32   18   19 1
    33   18   36 1
    34   18   37 1
    35   19   38 1
    36   19   39 1
    37   20   21 1
    38   20   40 1
    39   21   22 1
    40   21   41 1
    41   22   23 ar
    42   23   24 ar
    43   24   25 ar
    44   24   42 1
    45   25   26 1
    46   27   43 1
    47   27   44 1
@<TRIPOS>Similarity
1.0008
@<TRIPOS>ShapeSim
0.7015
@<TRIPOS>PharmSim
0.2994
# END
