# Name:		CCOC(=O)C1=CC=CC=C1NCC2=CC(=O)OC3=CC(=C(C=C23)O)O
# Created and modified by SHAFTS on Thu Mar 11 04:22:19 2021

# 

@<TRIPOS>MOLECULE
CCOC(=O)C1=CC=CC=C1NCC2=CC(=O)OC3=CC(=C(C=C23)O)O
   43    45     0
SMALL
USER_CHARGE


@<TRIPOS>ATOM
      1 C1         -0.0226    1.5280   -0.0921 C.3       1 <1>        -0.0325
      2 C2         -0.0005   -0.0016   -0.0621 C.3       1 <1>         0.0262
      3 O3         -1.3623   -0.5050   -0.0426 O.3       1 <1>        -0.3543
      4 C4         -1.5195   -1.8432   -0.0151 C.2       1 <1>         0.1733
      5 O5         -0.5452   -2.5695   -0.0075 O.2       1 <1>        -0.4619
      6 C6         -2.8723   -2.4256    0.0059 C.ar      1 <1>         0.0638
      7 C7         -3.9925   -1.5979    0.1206 C.ar      1 <1>        -0.0635
      8 C8         -5.2550   -2.1489    0.1391 C.ar      1 <1>        -0.0961
      9 C9         -5.4217   -3.5215    0.0445 C.ar      1 <1>        -0.0962
     10 C10        -4.3260   -4.3525   -0.0688 C.ar      1 <1>        -0.0645
     11 C11        -3.0450   -3.8157   -0.0951 C.ar      1 <1>        -0.0457
     12 N12        -1.9409   -4.6496   -0.2096 N.pl3     1 <1>        -0.3920
     13 C13        -2.1276   -6.0868   -0.4239 C.3       1 <1>        -0.0054
     14 C14        -0.7824   -6.7604   -0.5126 C.2       1 <1>        -0.0431
     15 C15        -0.2175   -7.3369    0.5803 C.2       1 <1>         0.0420
     16 C16         1.0421   -7.9608    0.4714 C.2       1 <1>         0.2048
     17 O17         1.5374   -8.4738    1.4589 O.2       1 <1>        -0.4179
     18 O18         1.7091   -8.0044   -0.6921 O.3       1 <1>        -0.2798
     19 C19         1.2039   -7.4507   -1.8162 C.ar      1 <1>         0.0543
     20 C20         1.9086   -7.5067   -3.0096 C.ar      1 <1>         0.0027
     21 C21         1.3791   -6.9353   -4.1533 C.ar      1 <1>         0.0193
     22 O22         2.0736   -6.9932   -5.3190 O.3       1 <1>        -0.4172
     23 C23         0.1348   -6.2994   -4.1183 C.ar      1 <1>         0.0125
     24 O24        -0.3742   -5.7423   -5.2500 O.3       1 <1>        -0.4258
     25 C25        -0.5780   -6.2358   -2.9403 C.ar      1 <1>        -0.0366
     26 C26        -0.0517   -6.8164   -1.7802 C.ar      1 <1>        -0.0187
     27 H27         0.9996    1.9059   -0.1067 H         1 <1>         0.0585
     28 H28        -0.5479    1.8663   -0.9853 H         1 <1>         0.0514
     29 H29        -0.5355    1.9014    0.7943 H         1 <1>         0.0514
     30 H30         0.5123   -0.3750   -0.9485 H         1 <1>         0.1011
     31 H31         0.5247   -0.3399    0.8311 H         1 <1>         0.1011
     32 H32        -3.8686   -0.5276    0.1950 H         1 <1>         0.1517
     33 H33        -6.1196   -1.5078    0.2282 H         1 <1>         0.1095
     34 H34        -6.4157   -3.9435    0.0600 H         1 <1>         0.1366
     35 H35        -4.4646   -5.4211   -0.1417 H         1 <1>         0.1146
     36 H36        -1.0459   -4.2807   -0.1475 H         1 <1>         0.3016
     37 H37        -2.6908   -6.5082    0.4087 H         1 <1>         0.1260
     38 H38        -2.6762   -6.2475   -1.3520 H         1 <1>         0.1260
     39 H39        -0.7317   -7.3170    1.5298 H         1 <1>         0.1658
     40 H40         2.8707   -7.9959   -3.0461 H         1 <1>         0.1607
     41 H41         1.8783   -7.7741   -5.8549 H         1 <1>         0.3695
     42 H42        -0.9175   -6.3455   -5.7753 H         1 <1>         0.3592
     43 H43        -1.5392   -5.7441   -2.9133 H         1 <1>         0.1574
@<TRIPOS>BOND
     1    1    2 1
     2    1   27 1
     3    1   28 1
     4    1   29 1
     5    2    3 1
     6    2   30 1
     7    2   31 1
     8    3    4 1
     9    4    5 2
    10    4    6 1
    11    6   11 ar
    12    6    7 ar
    13    7    8 ar
    14    7   32 1
    15    8    9 ar
    16    8   33 1
    17    9   10 ar
    18    9   34 1
    19   10   11 ar
    20   10   35 1
    21   11   12 1
    22   12   13 1
    23   12   36 1
    24   13   14 1
    25   13   37 1
    26   13   38 1
    27   14   26 1
    28   14   15 2
    29   15   16 1
    30   15   39 1
    31   16   17 2
    32   16   18 1
    33   18   19 1
    34   19   26 ar
    35   19   20 ar
    36   20   21 ar
    37   20   40 1
    38   21   22 1
    39   21   23 ar
    40   22   41 1
    41   23   24 1
    42   23   25 ar
    43   24   42 1
    44   25   26 ar
    45   25   43 1
@<TRIPOS>Similarity
2.0000
@<TRIPOS>ShapeSim
1.0000
@<TRIPOS>PharmSim
1.0000
# END
# Name:		O=C1C=C(CN(CC2=CC=C(F)C=C2)C)C(C=CC(O)=C3)=C3O1
# Created and modified by SHAFTS on Thu Mar 11 04:22:19 2021

# 

@<TRIPOS>MOLECULE
O=C1C=C(CN(CC2=CC=C(F)C=C2)C)C(C=CC(O)=C3)=C3O1
   40    42     0
SMALL
USER_CHARGE


@<TRIPOS>ATOM
      1 C1         -1.3095   -4.4322    1.0959 C.3       1 <1>        -0.0865
      2 N2         -1.9386   -4.6493   -0.2138 N.4       1 <1>         0.4120
      3 H3         -1.3446   -4.2750   -0.9384 H         1 <1>         0.1711
      4 C4         -3.2414   -3.9715   -0.2496 C.3       1 <1>        -0.0800
      5 C5         -3.0358   -2.4822   -0.1482 C.ar      1 <1>        -0.1245
      6 C6         -3.0060   -1.8719    1.0920 C.ar      1 <1>        -0.0937
      7 C7         -2.8175   -0.5061    1.1863 C.ar      1 <1>        -0.0391
      8 C8         -2.6580    0.2511    0.0381 C.ar      1 <1>         0.0769
      9 F9         -2.4732    1.5863    0.1291 F         1 <1>        -0.2518
     10 C10        -2.6876   -0.3612   -1.2034 C.ar      1 <1>        -0.0391
     11 C11        -2.8714   -1.7279   -1.2949 C.ar      1 <1>        -0.0937
     12 C12        -2.1295   -6.0894   -0.4325 C.3       1 <1>        -0.0654
     13 C13        -0.7863   -6.7669   -0.5182 C.2       1 <1>        -0.0885
     14 C14        -0.2267   -7.3476    0.5750 C.2       1 <1>         0.0355
     15 C15         1.0314   -7.9754    0.4692 C.2       1 <1>         0.2130
     16 O16         1.5215   -8.4924    1.4570 O.2       1 <1>        -0.4061
     17 O17         1.7027   -8.0182   -0.6924 O.3       1 <1>        -0.2745
     18 C18         1.2030   -7.4606   -1.8161 C.ar      1 <1>         0.0520
     19 C19         1.9090   -7.5141   -3.0080 C.ar      1 <1>         0.0021
     20 C20         1.3774   -6.9358   -4.1494 C.ar      1 <1>        -0.0087
     21 O21         2.0698   -6.9888   -5.3159 O.3       1 <1>        -0.4212
     22 C22         0.1379   -6.3007   -4.1098 C.ar      1 <1>        -0.0495
     23 C23        -0.5702   -6.2386   -2.9446 C.ar      1 <1>        -0.0806
     24 C24        -0.0513   -6.8226   -1.7836 C.ar      1 <1>        -0.0452
     25 H25        -0.3429   -4.9351    1.1226 H         1 <1>         0.0753
     26 H26        -1.1678   -3.3637    1.2583 H         1 <1>         0.0824
     27 H27        -1.9512   -4.8367    1.8787 H         1 <1>         0.0824
     28 H28        -3.7470   -4.2055   -1.1865 H         1 <1>         0.1116
     29 H29        -3.8513   -4.3120    0.5873 H         1 <1>         0.1116
     30 H30        -3.1304   -2.4628    1.9875 H         1 <1>         0.1394
     31 H31        -2.7949   -0.0296    2.1552 H         1 <1>         0.1427
     32 H32        -2.5636    0.2285   -2.0996 H         1 <1>         0.1427
     33 H33        -2.8942   -2.2057   -2.2632 H         1 <1>         0.1394
     34 H34        -2.6968   -6.5108    0.3973 H         1 <1>         0.1200
     35 H35        -2.6757   -6.2462   -1.3627 H         1 <1>         0.1200
     36 H36        -0.7440   -7.3281    1.5228 H         1 <1>         0.1778
     37 H37         2.8704   -8.0046   -3.0466 H         1 <1>         0.1606
     38 H38         1.8728   -7.7669   -5.8551 H         1 <1>         0.3759
     39 H39        -0.2649   -5.8543   -5.0069 H         1 <1>         0.1433
     40 H40        -1.5303   -5.7447   -2.9198 H         1 <1>         0.1405
@<TRIPOS>BOND
     1    1    2 1
     2    1   25 1
     3    1   26 1
     4    1   27 1
     5    2    3 1
     6    2    4 1
     7    2   12 1
     8    4    5 1
     9    4   28 1
    10    4   29 1
    11    5   11 ar
    12    5    6 ar
    13    6    7 ar
    14    6   30 1
    15    7    8 ar
    16    7   31 1
    17    8    9 1
    18    8   10 ar
    19   10   11 ar
    20   10   32 1
    21   11   33 1
    22   12   13 1
    23   12   34 1
    24   12   35 1
    25   13   24 1
    26   13   14 2
    27   14   15 1
    28   14   36 1
    29   15   16 2
    30   15   17 1
    31   17   18 1
    32   18   24 ar
    33   18   19 ar
    34   19   20 ar
    35   19   37 1
    36   20   21 1
    37   20   22 ar
    38   21   38 1
    39   22   23 ar
    40   22   39 1
    41   23   24 ar
    42   23   40 1
@<TRIPOS>Similarity
1.3335
@<TRIPOS>ShapeSim
0.7963
@<TRIPOS>PharmSim
0.5372
# END
# Name:		COC1=C(OC)C=C2C(N=C(OC=C3)C3=C2OC4=CC=CN=C4)=C1
# Created and modified by SHAFTS on Thu Mar 11 04:22:19 2021

# 

@<TRIPOS>MOLECULE
COC1=C(OC)C=C2C(N=C(OC=C3)C3=C2OC4=CC=CN=C4)=C1
   38    41     0
SMALL
USER_CHARGE


@<TRIPOS>ATOM
      1 C1          3.3354   -7.6608   -5.2948 C.3       1 <1>         0.0302
      2 O2          2.0723   -6.9927   -5.3182 O.3       1 <1>        -0.3962
      3 C3          1.3817   -6.9380   -4.1493 C.ar      1 <1>         0.0615
      4 C4          0.1330   -6.2997   -4.1134 C.ar      1 <1>         0.0510
      5 O5         -0.3721   -5.7441   -5.2474 O.3       1 <1>        -0.4009
      6 C6         -1.6481   -5.1087   -5.1456 C.3       1 <1>         0.0289
      7 C7         -0.5795   -6.2315   -2.9522 C.ar      1 <1>        -0.0296
      8 C8         -0.0575   -6.8060   -1.7813 C.ar      1 <1>         0.0074
      9 C9          1.2043   -7.4520   -1.8136 C.ar      1 <1>         0.0053
     10 C10         1.9101   -7.5093   -3.0285 C.ar      1 <1>         0.0044
     11 N11         1.7138   -8.0031   -0.7068 N.ar      1 <1>        -0.3306
     12 C12         1.0738   -7.9699    0.4472 C.ar      1 <1>         0.1016
     13 O13         1.3787   -8.4456    1.6733 O.3       1 <1>        -0.3175
     14 C14         0.4019   -8.1675    2.5561 C.2       1 <1>         0.0340
     15 C15        -0.5897   -7.4979    1.9564 C.2       1 <1>        -0.0538
     16 C16        -0.1867   -7.3434    0.5526 C.ar      1 <1>         0.0228
     17 C17        -0.7694   -6.7518   -0.5650 C.ar      1 <1>         0.0521
     18 O18        -1.9784   -6.1442   -0.4866 O.3       1 <1>        -0.3472
     19 C19        -2.0084   -4.8204   -0.1814 C.ar      1 <1>         0.0466
     20 C20        -3.2216   -4.1465   -0.0820 C.ar      1 <1>        -0.0420
     21 C21        -3.2014   -2.7969    0.2315 C.ar      1 <1>        -0.0606
     22 C22        -1.9867   -2.1691    0.4336 C.ar      1 <1>        -0.0417
     23 N23        -0.8540   -2.8370    0.3318 N.ar      1 <1>        -0.3980
     24 C24        -0.8298   -4.1225    0.0411 C.ar      1 <1>        -0.0037
     25 H25         3.9971   -7.1620   -4.5867 H         1 <1>         0.0917
     26 H26         3.1925   -8.6976   -4.9902 H         1 <1>         0.0917
     27 H27         3.7799   -7.6324   -6.2896 H         1 <1>         0.1278
     28 H28        -1.9335   -4.7088   -6.1186 H         1 <1>         0.1277
     29 H29        -2.3914   -5.8363   -4.8198 H         1 <1>         0.0915
     30 H30        -1.5928   -4.2965   -4.4209 H         1 <1>         0.0915
     31 H31        -1.5400   -5.7380   -2.9332 H         1 <1>         0.1372
     32 H32         2.8725   -7.9975   -3.0726 H         1 <1>         0.1559
     33 H33         0.4158   -8.4454    3.5997 H         1 <1>         0.2482
     34 H34        -1.5019   -7.1428    2.4126 H         1 <1>         0.1378
     35 H35        -4.1561   -4.6626   -0.2454 H         1 <1>         0.1500
     36 H36        -4.1240   -2.2419    0.3166 H         1 <1>         0.1421
     37 H37        -1.9647   -1.1173    0.6778 H         1 <1>         0.1941
     38 H38         0.1175   -4.6356   -0.0337 H         1 <1>         0.1888
@<TRIPOS>BOND
     1    1    2 1
     2    1   25 1
     3    1   26 1
     4    1   27 1
     5    2    3 1
     6    3   10 ar
     7    3    4 ar
     8    4    5 1
     9    4    7 ar
    10    5    6 1
    11    6   28 1
    12    6   29 1
    13    6   30 1
    14    7    8 ar
    15    7   31 1
    16    8   17 ar
    17    8    9 ar
    18    9   10 ar
    19    9   11 ar
    20   10   32 1
    21   11   12 ar
    22   12   16 ar
    23   12   13 1
    24   13   14 1
    25   14   15 2
    26   14   33 1
    27   15   16 1
    28   15   34 1
    29   16   17 ar
    30   17   18 1
    31   18   19 1
    32   19   24 ar
    33   19   20 ar
    34   20   21 ar
    35   20   35 1
    36   21   22 ar
    37   21   36 1
    38   22   23 ar
    39   22   37 1
    40   23   24 ar
    41   24   38 1
@<TRIPOS>Similarity
1.2246
@<TRIPOS>ShapeSim
0.8242
@<TRIPOS>PharmSim
0.4004
# END
# Name:		COC1=C(C=C2C(=C1)C(=C3C=COC3=N2)OC4=CN=CC=C4)OC
# Created and modified by SHAFTS on Thu Mar 11 04:22:19 2021

# 

@<TRIPOS>MOLECULE
COC1=C(C=C2C(=C1)C(=C3C=COC3=N2)OC4=CN=CC=C4)OC
   38    41     0
SMALL
USER_CHARGE


@<TRIPOS>ATOM
      1 C1          3.3354   -7.6608   -5.2948 C.3       1 <1>         0.0302
      2 O2          2.0723   -6.9927   -5.3182 O.3       1 <1>        -0.3962
      3 C3          1.3817   -6.9380   -4.1493 C.ar      1 <1>         0.0615
      4 C4          0.1330   -6.2997   -4.1134 C.ar      1 <1>         0.0510
      5 O5         -0.3721   -5.7441   -5.2474 O.3       1 <1>        -0.4009
      6 C6         -1.6481   -5.1087   -5.1456 C.3       1 <1>         0.0289
      7 C7         -0.5795   -6.2315   -2.9522 C.ar      1 <1>        -0.0296
      8 C8         -0.0575   -6.8060   -1.7813 C.ar      1 <1>         0.0074
      9 C9          1.2043   -7.4520   -1.8136 C.ar      1 <1>         0.0053
     10 C10         1.9101   -7.5093   -3.0285 C.ar      1 <1>         0.0044
     11 N11         1.7138   -8.0031   -0.7068 N.ar      1 <1>        -0.3306
     12 C12         1.0738   -7.9699    0.4472 C.ar      1 <1>         0.1016
     13 O13         1.3787   -8.4456    1.6733 O.3       1 <1>        -0.3175
     14 C14         0.4019   -8.1675    2.5561 C.2       1 <1>         0.0340
     15 C15        -0.5897   -7.4979    1.9564 C.2       1 <1>        -0.0538
     16 C16        -0.1867   -7.3434    0.5526 C.ar      1 <1>         0.0228
     17 C17        -0.7694   -6.7518   -0.5650 C.ar      1 <1>         0.0521
     18 O18        -1.9784   -6.1442   -0.4866 O.3       1 <1>        -0.3472
     19 C19        -2.0084   -4.8204   -0.1814 C.ar      1 <1>         0.0466
     20 C20        -3.2216   -4.1465   -0.0820 C.ar      1 <1>        -0.0420
     21 C21        -3.2014   -2.7969    0.2315 C.ar      1 <1>        -0.0606
     22 C22        -1.9867   -2.1691    0.4336 C.ar      1 <1>        -0.0417
     23 N23        -0.8540   -2.8370    0.3318 N.ar      1 <1>        -0.3980
     24 C24        -0.8298   -4.1225    0.0411 C.ar      1 <1>        -0.0037
     25 H25         3.9971   -7.1620   -4.5867 H         1 <1>         0.0917
     26 H26         3.1925   -8.6976   -4.9902 H         1 <1>         0.0917
     27 H27         3.7799   -7.6324   -6.2896 H         1 <1>         0.1278
     28 H28        -1.9335   -4.7088   -6.1186 H         1 <1>         0.1277
     29 H29        -2.3914   -5.8363   -4.8198 H         1 <1>         0.0915
     30 H30        -1.5928   -4.2965   -4.4209 H         1 <1>         0.0915
     31 H31        -1.5400   -5.7380   -2.9332 H         1 <1>         0.1372
     32 H32         2.8725   -7.9975   -3.0726 H         1 <1>         0.1559
     33 H33         0.4158   -8.4454    3.5997 H         1 <1>         0.2482
     34 H34        -1.5019   -7.1428    2.4126 H         1 <1>         0.1378
     35 H35        -4.1561   -4.6626   -0.2454 H         1 <1>         0.1500
     36 H36        -4.1240   -2.2419    0.3166 H         1 <1>         0.1421
     37 H37        -1.9647   -1.1173    0.6778 H         1 <1>         0.1941
     38 H38         0.1175   -4.6356   -0.0337 H         1 <1>         0.1888
@<TRIPOS>BOND
     1    1    2 1
     2    1   25 1
     3    1   26 1
     4    1   27 1
     5    2    3 1
     6    3   10 ar
     7    3    4 ar
     8    4    5 1
     9    4    7 ar
    10    5    6 1
    11    6   28 1
    12    6   29 1
    13    6   30 1
    14    7    8 ar
    15    7   31 1
    16    8   17 ar
    17    8    9 ar
    18    9   10 ar
    19    9   11 ar
    20   10   32 1
    21   11   12 ar
    22   12   16 ar
    23   12   13 1
    24   13   14 1
    25   14   15 2
    26   14   33 1
    27   15   16 1
    28   15   34 1
    29   16   17 ar
    30   17   18 1
    31   18   19 1
    32   19   24 ar
    33   19   20 ar
    34   20   21 ar
    35   20   35 1
    36   21   22 ar
    37   21   36 1
    38   22   23 ar
    39   22   37 1
    40   23   24 ar
    41   24   38 1
@<TRIPOS>Similarity
1.2246
@<TRIPOS>ShapeSim
0.8242
@<TRIPOS>PharmSim
0.4004
# END
# Name:		COC1=CC=C(C=C1)C2=COC3=CC(=CC(=C3C2=O)O)O
# Created and modified by SHAFTS on Thu Mar 11 04:22:19 2021

# 

@<TRIPOS>MOLECULE
COC1=CC=C(C=C1)C2=COC3=CC(=CC(=C3C2=O)O)O
   32    34     0
SMALL
USER_CHARGE


@<TRIPOS>ATOM
      1 C1         -5.3216   -0.1130    1.1812 C.3       1 <1>         0.0201
      2 O2         -5.7941   -1.2643    0.4789 O.3       1 <1>        -0.4223
      3 C3         -4.8695   -2.1984    0.1327 C.ar      1 <1>        -0.0199
      4 C4         -3.5359   -2.0107    0.4687 C.ar      1 <1>        -0.0727
      5 C5         -2.5953   -2.9568    0.1186 C.ar      1 <1>        -0.0898
      6 C6         -2.9852   -4.1025   -0.5727 C.ar      1 <1>        -0.0697
      7 C7         -1.9762   -5.1222   -0.9502 C.2       1 <1>         0.0223
      8 C8         -1.3129   -5.8330   -0.0022 C.2       1 <1>         0.0442
      9 O9         -0.4107   -6.7704   -0.2937 O.3       1 <1>        -0.3516
     10 C10         0.1348   -6.8587   -1.5218 C.ar      1 <1>         0.0247
     11 C11         1.2886   -7.6025   -1.7269 C.ar      1 <1>        -0.0310
     12 C12         1.8394   -7.6970   -2.9949 C.ar      1 <1>        -0.0636
     13 O13         2.9694   -8.4253   -3.1828 O.3       1 <1>        -0.5676
     14 C14         1.2478   -7.0550   -4.0774 C.ar      1 <1>        -0.0359
     15 C15         0.0993   -6.3066   -3.8954 C.ar      1 <1>        -0.0240
     16 O16        -0.4843   -5.6815   -4.9490 O.3       1 <1>        -0.4294
     17 C17        -0.4564   -6.1994   -2.6151 C.ar      1 <1>         0.0370
     18 C18        -1.6685   -5.3979   -2.3675 C.2       1 <1>         0.0714
     19 O19        -2.3695   -4.9859   -3.2761 O.2       1 <1>        -0.4858
     20 C20        -4.3252   -4.2885   -0.9082 C.ar      1 <1>        -0.0764
     21 C21        -5.2618   -3.3409   -0.5511 C.ar      1 <1>        -0.0568
     22 H22        -4.5902    0.4125    0.5671 H         1 <1>         0.0842
     23 H23        -6.1592    0.5506    1.3963 H         1 <1>         0.1204
     24 H24        -4.8549   -0.4238    2.1160 H         1 <1>         0.0842
     25 H25        -3.2345   -1.1226    1.0043 H         1 <1>         0.1100
     26 H26        -1.5577   -2.8098    0.3797 H         1 <1>         0.1322
     27 H27        -1.5260   -5.6292    1.0368 H         1 <1>         0.2358
     28 H28         1.7583   -8.1083   -0.8963 H         1 <1>         0.1019
     29 H29         1.6860   -7.1406   -5.0608 H         1 <1>         0.1029
     30 H30        -1.1453   -6.2179   -5.4078 H         1 <1>         0.3593
     31 H31        -4.6304   -5.1750   -1.4442 H         1 <1>         0.1398
     32 H32        -6.3003   -3.4842   -0.8108 H         1 <1>         0.1260
@<TRIPOS>BOND
     1    1    2 1
     2    1   22 1
     3    1   23 1
     4    1   24 1
     5    2    3 1
     6    3   21 ar
     7    3    4 ar
     8    4    5 ar
     9    4   25 1
    10    5    6 ar
    11    5   26 1
    12    6    7 1
    13    6   20 ar
    14    7   18 1
    15    7    8 2
    16    8    9 1
    17    8   27 1
    18    9   10 1
    19   10   17 ar
    20   10   11 ar
    21   11   12 ar
    22   11   28 1
    23   12   13 1
    24   12   14 ar
    25   14   15 ar
    26   14   29 1
    27   15   16 1
    28   15   17 ar
    29   16   30 1
    30   17   18 1
    31   18   19 2
    32   20   21 ar
    33   20   31 1
    34   21   32 1
@<TRIPOS>Similarity
1.1919
@<TRIPOS>ShapeSim
0.7683
@<TRIPOS>PharmSim
0.4236
# END
# Name:		COC1=CC=C(C=C1)C2=COC3=CC(=CC(=C3C2=O)O)O
# Created and modified by SHAFTS on Thu Mar 11 04:22:19 2021

# 

@<TRIPOS>MOLECULE
COC1=CC=C(C=C1)C2=COC3=CC(=CC(=C3C2=O)O)O
   32    34     0
SMALL
USER_CHARGE


@<TRIPOS>ATOM
      1 C1         -5.3216   -0.1130    1.1812 C.3       1 <1>         0.0201
      2 O2         -5.7941   -1.2643    0.4789 O.3       1 <1>        -0.4223
      3 C3         -4.8695   -2.1984    0.1327 C.ar      1 <1>        -0.0199
      4 C4         -3.5359   -2.0107    0.4687 C.ar      1 <1>        -0.0727
      5 C5         -2.5953   -2.9568    0.1186 C.ar      1 <1>        -0.0898
      6 C6         -2.9852   -4.1025   -0.5727 C.ar      1 <1>        -0.0697
      7 C7         -1.9762   -5.1222   -0.9502 C.2       1 <1>         0.0223
      8 C8         -1.3129   -5.8330   -0.0022 C.2       1 <1>         0.0442
      9 O9         -0.4107   -6.7704   -0.2937 O.3       1 <1>        -0.3516
     10 C10         0.1348   -6.8587   -1.5218 C.ar      1 <1>         0.0247
     11 C11         1.2886   -7.6025   -1.7269 C.ar      1 <1>        -0.0310
     12 C12         1.8394   -7.6970   -2.9949 C.ar      1 <1>        -0.0636
     13 O13         2.9694   -8.4253   -3.1828 O.3       1 <1>        -0.5676
     14 C14         1.2478   -7.0550   -4.0774 C.ar      1 <1>        -0.0359
     15 C15         0.0993   -6.3066   -3.8954 C.ar      1 <1>        -0.0240
     16 O16        -0.4843   -5.6815   -4.9490 O.3       1 <1>        -0.4294
     17 C17        -0.4564   -6.1994   -2.6151 C.ar      1 <1>         0.0370
     18 C18        -1.6685   -5.3979   -2.3675 C.2       1 <1>         0.0714
     19 O19        -2.3695   -4.9859   -3.2761 O.2       1 <1>        -0.4858
     20 C20        -4.3252   -4.2885   -0.9082 C.ar      1 <1>        -0.0764
     21 C21        -5.2618   -3.3409   -0.5511 C.ar      1 <1>        -0.0568
     22 H22        -4.5902    0.4125    0.5671 H         1 <1>         0.0842
     23 H23        -6.1592    0.5506    1.3963 H         1 <1>         0.1204
     24 H24        -4.8549   -0.4238    2.1160 H         1 <1>         0.0842
     25 H25        -3.2345   -1.1226    1.0043 H         1 <1>         0.1100
     26 H26        -1.5577   -2.8098    0.3797 H         1 <1>         0.1322
     27 H27        -1.5260   -5.6292    1.0368 H         1 <1>         0.2358
     28 H28         1.7583   -8.1083   -0.8963 H         1 <1>         0.1019
     29 H29         1.6860   -7.1406   -5.0608 H         1 <1>         0.1029
     30 H30        -1.1453   -6.2179   -5.4078 H         1 <1>         0.3593
     31 H31        -4.6304   -5.1750   -1.4442 H         1 <1>         0.1398
     32 H32        -6.3003   -3.4842   -0.8108 H         1 <1>         0.1260
@<TRIPOS>BOND
     1    1    2 1
     2    1   22 1
     3    1   23 1
     4    1   24 1
     5    2    3 1
     6    3   21 ar
     7    3    4 ar
     8    4    5 ar
     9    4   25 1
    10    5    6 ar
    11    5   26 1
    12    6    7 1
    13    6   20 ar
    14    7   18 1
    15    7    8 2
    16    8    9 1
    17    8   27 1
    18    9   10 1
    19   10   17 ar
    20   10   11 ar
    21   11   12 ar
    22   11   28 1
    23   12   13 1
    24   12   14 ar
    25   14   15 ar
    26   14   29 1
    27   15   16 1
    28   15   17 ar
    29   16   30 1
    30   17   18 1
    31   18   19 2
    32   20   21 ar
    33   20   31 1
    34   21   32 1
@<TRIPOS>Similarity
1.1919
@<TRIPOS>ShapeSim
0.7683
@<TRIPOS>PharmSim
0.4236
# END
# Name:		C1=CC(=CC=C1C2=COC3=CC(=CC(=C3C2=O)O)O)O
# Created and modified by SHAFTS on Thu Mar 11 04:22:19 2021

# 

@<TRIPOS>MOLECULE
C1=CC(=CC=C1C2=COC3=CC(=CC(=C3C2=O)O)O)O
   29    31     0
SMALL
USER_CHARGE


@<TRIPOS>ATOM
      1 O1         -2.3631   -4.9781   -3.2752 O.2       1 <1>        -0.4861
      2 C2         -1.6635   -5.3930   -2.3669 C.2       1 <1>         0.0707
      3 C3         -1.9745   -5.1204   -0.9496 C.2       1 <1>         0.0226
      4 C4         -2.9844   -4.1016   -0.5724 C.ar      1 <1>        -0.0710
      5 C5         -4.3245   -4.2895   -0.9067 C.ar      1 <1>        -0.0795
      6 C6         -5.2612   -3.3402   -0.5545 C.ar      1 <1>        -0.0658
      7 C7         -4.8707   -2.1990    0.1323 C.ar      1 <1>        -0.0438
      8 O8         -5.7961   -1.2655    0.4779 O.3       1 <1>        -0.4424
      9 C9         -3.5370   -2.0092    0.4672 C.ar      1 <1>        -0.0689
     10 C10        -2.5963   -2.9572    0.1224 C.ar      1 <1>        -0.0837
     11 C11        -1.3096   -5.8294   -0.0017 C.2       1 <1>         0.0436
     12 O12        -0.4074   -6.7670   -0.2929 O.3       1 <1>        -0.3519
     13 C13         0.1363   -6.8574   -1.5216 C.ar      1 <1>         0.0246
     14 C14         1.2884   -7.6035   -1.7274 C.ar      1 <1>        -0.0310
     15 C15         1.8370   -7.7010   -2.9962 C.ar      1 <1>        -0.0636
     16 O16         2.9651   -8.4320   -3.1848 O.3       1 <1>        -0.5676
     17 C17         1.2451   -7.0591   -4.0786 C.ar      1 <1>        -0.0359
     18 C18         0.0988   -6.3075   -3.8956 C.ar      1 <1>        -0.0240
     19 O19        -0.4843   -5.6815   -4.9489 O.3       1 <1>        -0.4294
     20 C20        -0.4583   -6.2028   -2.6145 C.ar      1 <1>         0.0367
     21 H21        -4.6290   -5.1771   -1.4414 H         1 <1>         0.1337
     22 H22        -6.2997   -3.4850   -0.8136 H         1 <1>         0.1261
     23 H23        -6.1971   -1.4117    1.3456 H         1 <1>         0.3535
     24 H24        -3.2363   -1.1204    1.0019 H         1 <1>         0.1252
     25 H25        -1.5588   -2.8091    0.3833 H         1 <1>         0.1286
     26 H26        -1.5218   -5.6247    1.0374 H         1 <1>         0.2354
     27 H27         1.7585   -8.1091   -0.8968 H         1 <1>         0.1019
     28 H28         1.6812   -7.1474   -5.0627 H         1 <1>         0.1029
     29 H29        -1.1472   -6.2164   -5.4066 H         1 <1>         0.3593
@<TRIPOS>BOND
     1    1    2 2
     2    2   20 1
     3    2    3 1
     4    3    4 1
     5    3   11 2
     6    4   10 ar
     7    4    5 ar
     8    5    6 ar
     9    5   21 1
    10    6    7 ar
    11    6   22 1
    12    7    8 1
    13    7    9 ar
    14    8   23 1
    15    9   10 ar
    16    9   24 1
    17   10   25 1
    18   11   12 1
    19   11   26 1
    20   12   13 1
    21   13   20 ar
    22   13   14 ar
    23   14   15 ar
    24   14   27 1
    25   15   16 1
    26   15   17 ar
    27   17   18 ar
    28   17   28 1
    29   18   19 1
    30   18   20 ar
    31   19   29 1
@<TRIPOS>Similarity
1.1810
@<TRIPOS>ShapeSim
0.7785
@<TRIPOS>PharmSim
0.4025
# END
# Name:		C1=CC(=CC=C1C2=COC3=CC(=CC(=C3C2=O)O)O)O
# Created and modified by SHAFTS on Thu Mar 11 04:22:19 2021

# 

@<TRIPOS>MOLECULE
C1=CC(=CC=C1C2=COC3=CC(=CC(=C3C2=O)O)O)O
   29    31     0
SMALL
USER_CHARGE


@<TRIPOS>ATOM
      1 O1         -2.3631   -4.9781   -3.2752 O.2       1 <1>        -0.4861
      2 C2         -1.6635   -5.3930   -2.3669 C.2       1 <1>         0.0707
      3 C3         -1.9745   -5.1204   -0.9496 C.2       1 <1>         0.0226
      4 C4         -2.9844   -4.1016   -0.5724 C.ar      1 <1>        -0.0710
      5 C5         -4.3245   -4.2895   -0.9067 C.ar      1 <1>        -0.0795
      6 C6         -5.2612   -3.3402   -0.5545 C.ar      1 <1>        -0.0658
      7 C7         -4.8707   -2.1990    0.1323 C.ar      1 <1>        -0.0438
      8 O8         -5.7961   -1.2655    0.4779 O.3       1 <1>        -0.4424
      9 C9         -3.5370   -2.0092    0.4672 C.ar      1 <1>        -0.0689
     10 C10        -2.5963   -2.9572    0.1224 C.ar      1 <1>        -0.0837
     11 C11        -1.3096   -5.8294   -0.0017 C.2       1 <1>         0.0436
     12 O12        -0.4074   -6.7670   -0.2929 O.3       1 <1>        -0.3519
     13 C13         0.1363   -6.8574   -1.5216 C.ar      1 <1>         0.0246
     14 C14         1.2884   -7.6035   -1.7274 C.ar      1 <1>        -0.0310
     15 C15         1.8370   -7.7010   -2.9962 C.ar      1 <1>        -0.0636
     16 O16         2.9651   -8.4320   -3.1848 O.3       1 <1>        -0.5676
     17 C17         1.2451   -7.0591   -4.0786 C.ar      1 <1>        -0.0359
     18 C18         0.0988   -6.3075   -3.8956 C.ar      1 <1>        -0.0240
     19 O19        -0.4843   -5.6815   -4.9489 O.3       1 <1>        -0.4294
     20 C20        -0.4583   -6.2028   -2.6145 C.ar      1 <1>         0.0367
     21 H21        -4.6290   -5.1771   -1.4414 H         1 <1>         0.1337
     22 H22        -6.2997   -3.4850   -0.8136 H         1 <1>         0.1261
     23 H23        -6.1971   -1.4117    1.3456 H         1 <1>         0.3535
     24 H24        -3.2363   -1.1204    1.0019 H         1 <1>         0.1252
     25 H25        -1.5588   -2.8091    0.3833 H         1 <1>         0.1286
     26 H26        -1.5218   -5.6247    1.0374 H         1 <1>         0.2354
     27 H27         1.7585   -8.1091   -0.8968 H         1 <1>         0.1019
     28 H28         1.6812   -7.1474   -5.0627 H         1 <1>         0.1029
     29 H29        -1.1472   -6.2164   -5.4066 H         1 <1>         0.3593
@<TRIPOS>BOND
     1    1    2 2
     2    2   20 1
     3    2    3 1
     4    3    4 1
     5    3   11 2
     6    4   10 ar
     7    4    5 ar
     8    5    6 ar
     9    5   21 1
    10    6    7 ar
    11    6   22 1
    12    7    8 1
    13    7    9 ar
    14    8   23 1
    15    9   10 ar
    16    9   24 1
    17   10   25 1
    18   11   12 1
    19   11   26 1
    20   12   13 1
    21   13   20 ar
    22   13   14 ar
    23   14   15 ar
    24   14   27 1
    25   15   16 1
    26   15   17 ar
    27   17   18 ar
    28   17   28 1
    29   18   19 1
    30   18   20 ar
    31   19   29 1
@<TRIPOS>Similarity
1.1810
@<TRIPOS>ShapeSim
0.7785
@<TRIPOS>PharmSim
0.4025
# END
# Name:		C1=CC(=CC=C1C2=COC3=CC(=CC(=C3C2=O)O)O)O
# Created and modified by SHAFTS on Thu Mar 11 04:22:19 2021

# 

@<TRIPOS>MOLECULE
C1=CC(=CC=C1C2=COC3=CC(=CC(=C3C2=O)O)O)O
   29    31     0
SMALL
USER_CHARGE


@<TRIPOS>ATOM
      1 O1         -2.3631   -4.9781   -3.2752 O.2       1 <1>        -0.4861
      2 C2         -1.6635   -5.3930   -2.3669 C.2       1 <1>         0.0707
      3 C3         -1.9745   -5.1204   -0.9496 C.2       1 <1>         0.0226
      4 C4         -2.9844   -4.1016   -0.5724 C.ar      1 <1>        -0.0710
      5 C5         -4.3245   -4.2895   -0.9067 C.ar      1 <1>        -0.0795
      6 C6         -5.2612   -3.3402   -0.5545 C.ar      1 <1>        -0.0658
      7 C7         -4.8707   -2.1990    0.1323 C.ar      1 <1>        -0.0438
      8 O8         -5.7961   -1.2655    0.4779 O.3       1 <1>        -0.4424
      9 C9         -3.5370   -2.0092    0.4672 C.ar      1 <1>        -0.0689
     10 C10        -2.5963   -2.9572    0.1224 C.ar      1 <1>        -0.0837
     11 C11        -1.3096   -5.8294   -0.0017 C.2       1 <1>         0.0436
     12 O12        -0.4074   -6.7670   -0.2929 O.3       1 <1>        -0.3519
     13 C13         0.1363   -6.8574   -1.5216 C.ar      1 <1>         0.0246
     14 C14         1.2884   -7.6035   -1.7274 C.ar      1 <1>        -0.0310
     15 C15         1.8370   -7.7010   -2.9962 C.ar      1 <1>        -0.0636
     16 O16         2.9651   -8.4320   -3.1848 O.3       1 <1>        -0.5676
     17 C17         1.2451   -7.0591   -4.0786 C.ar      1 <1>        -0.0359
     18 C18         0.0988   -6.3075   -3.8956 C.ar      1 <1>        -0.0240
     19 O19        -0.4843   -5.6815   -4.9489 O.3       1 <1>        -0.4294
     20 C20        -0.4583   -6.2028   -2.6145 C.ar      1 <1>         0.0367
     21 H21        -4.6290   -5.1771   -1.4414 H         1 <1>         0.1337
     22 H22        -6.2997   -3.4850   -0.8136 H         1 <1>         0.1261
     23 H23        -6.1971   -1.4117    1.3456 H         1 <1>         0.3535
     24 H24        -3.2363   -1.1204    1.0019 H         1 <1>         0.1252
     25 H25        -1.5588   -2.8091    0.3833 H         1 <1>         0.1286
     26 H26        -1.5218   -5.6247    1.0374 H         1 <1>         0.2354
     27 H27         1.7585   -8.1091   -0.8968 H         1 <1>         0.1019
     28 H28         1.6812   -7.1474   -5.0627 H         1 <1>         0.1029
     29 H29        -1.1472   -6.2164   -5.4066 H         1 <1>         0.3593
@<TRIPOS>BOND
     1    1    2 2
     2    2   20 1
     3    2    3 1
     4    3    4 1
     5    3   11 2
     6    4   10 ar
     7    4    5 ar
     8    5    6 ar
     9    5   21 1
    10    6    7 ar
    11    6   22 1
    12    7    8 1
    13    7    9 ar
    14    8   23 1
    15    9   10 ar
    16    9   24 1
    17   10   25 1
    18   11   12 1
    19   11   26 1
    20   12   13 1
    21   13   20 ar
    22   13   14 ar
    23   14   15 ar
    24   14   27 1
    25   15   16 1
    26   15   17 ar
    27   17   18 ar
    28   17   28 1
    29   18   19 1
    30   18   20 ar
    31   19   29 1
@<TRIPOS>Similarity
1.1810
@<TRIPOS>ShapeSim
0.7785
@<TRIPOS>PharmSim
0.4025
# END
# Name:		C1=CC(=CC=C1C2=COC3=CC(=CC(=C3C2=O)O)O)O
# Created and modified by SHAFTS on Thu Mar 11 04:22:19 2021

# 

@<TRIPOS>MOLECULE
C1=CC(=CC=C1C2=COC3=CC(=CC(=C3C2=O)O)O)O
   29    31     0
SMALL
USER_CHARGE


@<TRIPOS>ATOM
      1 O1         -2.3631   -4.9781   -3.2752 O.2       1 <1>        -0.4861
      2 C2         -1.6635   -5.3930   -2.3669 C.2       1 <1>         0.0707
      3 C3         -1.9745   -5.1204   -0.9496 C.2       1 <1>         0.0226
      4 C4         -2.9844   -4.1016   -0.5724 C.ar      1 <1>        -0.0710
      5 C5         -4.3245   -4.2895   -0.9067 C.ar      1 <1>        -0.0795
      6 C6         -5.2612   -3.3402   -0.5545 C.ar      1 <1>        -0.0658
      7 C7         -4.8707   -2.1990    0.1323 C.ar      1 <1>        -0.0438
      8 O8         -5.7961   -1.2655    0.4779 O.3       1 <1>        -0.4424
      9 C9         -3.5370   -2.0092    0.4672 C.ar      1 <1>        -0.0689
     10 C10        -2.5963   -2.9572    0.1224 C.ar      1 <1>        -0.0837
     11 C11        -1.3096   -5.8294   -0.0017 C.2       1 <1>         0.0436
     12 O12        -0.4074   -6.7670   -0.2929 O.3       1 <1>        -0.3519
     13 C13         0.1363   -6.8574   -1.5216 C.ar      1 <1>         0.0246
     14 C14         1.2884   -7.6035   -1.7274 C.ar      1 <1>        -0.0310
     15 C15         1.8370   -7.7010   -2.9962 C.ar      1 <1>        -0.0636
     16 O16         2.9651   -8.4320   -3.1848 O.3       1 <1>        -0.5676
     17 C17         1.2451   -7.0591   -4.0786 C.ar      1 <1>        -0.0359
     18 C18         0.0988   -6.3075   -3.8956 C.ar      1 <1>        -0.0240
     19 O19        -0.4843   -5.6815   -4.9489 O.3       1 <1>        -0.4294
     20 C20        -0.4583   -6.2028   -2.6145 C.ar      1 <1>         0.0367
     21 H21        -4.6290   -5.1771   -1.4414 H         1 <1>         0.1337
     22 H22        -6.2997   -3.4850   -0.8136 H         1 <1>         0.1261
     23 H23        -6.1971   -1.4117    1.3456 H         1 <1>         0.3535
     24 H24        -3.2363   -1.1204    1.0019 H         1 <1>         0.1252
     25 H25        -1.5588   -2.8091    0.3833 H         1 <1>         0.1286
     26 H26        -1.5218   -5.6247    1.0374 H         1 <1>         0.2354
     27 H27         1.7585   -8.1091   -0.8968 H         1 <1>         0.1019
     28 H28         1.6812   -7.1474   -5.0627 H         1 <1>         0.1029
     29 H29        -1.1472   -6.2164   -5.4066 H         1 <1>         0.3593
@<TRIPOS>BOND
     1    1    2 2
     2    2   20 1
     3    2    3 1
     4    3    4 1
     5    3   11 2
     6    4   10 ar
     7    4    5 ar
     8    5    6 ar
     9    5   21 1
    10    6    7 ar
    11    6   22 1
    12    7    8 1
    13    7    9 ar
    14    8   23 1
    15    9   10 ar
    16    9   24 1
    17   10   25 1
    18   11   12 1
    19   11   26 1
    20   12   13 1
    21   13   20 ar
    22   13   14 ar
    23   14   15 ar
    24   14   27 1
    25   15   16 1
    26   15   17 ar
    27   17   18 ar
    28   17   28 1
    29   18   19 1
    30   18   20 ar
    31   19   29 1
@<TRIPOS>Similarity
1.1810
@<TRIPOS>ShapeSim
0.7785
@<TRIPOS>PharmSim
0.4025
# END
# Name:		C1=CC(=C(C=C1C2=C(C(=O)C3=C(C=C(C=C3O2)O)O)O)O)O
# Created and modified by SHAFTS on Thu Mar 11 04:22:19 2021

# 

@<TRIPOS>MOLECULE
C1=CC(=C(C=C1C2=C(C(=O)C3=C(C=C(C=C3O2)O)O)O)O)O
   31    33     0
SMALL
USER_CHARGE


@<TRIPOS>ATOM
      1 O1         -0.5842   -2.3561    0.1046 O.2       1 <1>        -0.5203
      2 C2         -1.3743   -3.1234   -0.4238 C.2       1 <1>         0.0466
      3 C3         -2.4443   -2.6405   -1.1912 C.2       1 <1>        -0.0381
      4 C4         -3.3323   -3.5151   -1.7786 C.2       1 <1>        -0.0647
      5 O5         -4.3490   -3.0128   -2.5202 O.3       1 <1>        -0.5619
      6 C6         -3.2225   -4.9039   -1.6377 C.2       1 <1>        -0.0101
      7 C7         -2.2175   -5.4622   -0.9073 C.2       1 <1>         0.0374
      8 O8         -2.1403   -6.8055   -0.7592 O.3       1 <1>        -0.3747
      9 C9         -0.8403   -7.3797   -0.5827 C.3       1 <1>         0.1435
     10 C10        -0.0534   -7.2584   -1.8622 C.ar      1 <1>        -0.0489
     11 C11         1.1296   -7.9570   -2.0130 C.ar      1 <1>        -0.0891
     12 C12         1.8555   -7.8487   -3.1850 C.ar      1 <1>        -0.0603
     13 C13         1.3971   -7.0391   -4.2113 C.ar      1 <1>        -0.0027
     14 O14         2.1096   -6.9319   -5.3647 O.3       1 <1>        -0.4304
     15 C15         0.2055   -6.3360   -4.0597 C.ar      1 <1>         0.0018
     16 O16        -0.2490   -5.5403   -5.0646 O.3       1 <1>        -0.4256
     17 C17        -0.5196   -6.4530   -2.8851 C.ar      1 <1>        -0.0483
     18 C18        -0.1334   -6.6242    0.5256 C.2       1 <1>         0.1620
     19 O19         0.4406   -7.1986    1.4202 O.2       1 <1>        -0.4305
     20 C20        -0.1828   -5.1325    0.4543 C.2       1 <1>         0.0993
     21 O21         0.7390   -4.3623    1.0634 O.3       1 <1>        -0.3856
     22 C22        -1.2260   -4.5831   -0.2779 C.2       1 <1>         0.0703
     23 H23        -2.5732   -1.5763   -1.3223 H         1 <1>         0.0568
     24 H24        -3.9483   -5.5444   -2.1169 H         1 <1>         0.1413
     25 H25        -0.9366   -8.4302   -0.3087 H         1 <1>         0.2113
     26 H26         1.4880   -8.5884   -1.2136 H         1 <1>         0.1251
     27 H27         2.7800   -8.3951   -3.3000 H         1 <1>         0.1354
     28 H28         1.8693   -7.5838   -6.0375 H         1 <1>         0.3567
     29 H29        -0.8265   -5.9931   -5.6943 H         1 <1>         0.3597
     30 H30        -1.4444   -5.9084   -2.7649 H         1 <1>         0.1554
     31 H31         1.4383   -4.8179    1.5519 H         1 <1>         0.3887
@<TRIPOS>BOND
     1    1    2 2
     2    2   22 1
     3    2    3 1
     4    3    4 2
     5    3   23 1
     6    4    5 1
     7    4    6 1
     8    6    7 2
     9    6   24 1
    10    7   22 1
    11    7    8 1
    12    8    9 1
    13    9   10 1
    14    9   18 1
    15    9   25 1
    16   10   17 ar
    17   10   11 ar
    18   11   12 ar
    19   11   26 1
    20   12   13 ar
    21   12   27 1
    22   13   14 1
    23   13   15 ar
    24   14   28 1
    25   15   16 1
    26   15   17 ar
    27   16   29 1
    28   17   30 1
    29   18   19 2
    30   18   20 1
    31   20   21 1
    32   20   22 2
    33   21   31 1
@<TRIPOS>Similarity
1.1441
@<TRIPOS>ShapeSim
0.6774
@<TRIPOS>PharmSim
0.4667
# END
# Name:		C1=CC(=C(C=C1C2=C(C(=O)C3=C(C=C(C=C3O2)O)O)O)O)O
# Created and modified by SHAFTS on Thu Mar 11 04:22:19 2021

# 

@<TRIPOS>MOLECULE
C1=CC(=C(C=C1C2=C(C(=O)C3=C(C=C(C=C3O2)O)O)O)O)O
   31    33     0
SMALL
USER_CHARGE


@<TRIPOS>ATOM
      1 O1         -0.5842   -2.3561    0.1046 O.2       1 <1>        -0.5203
      2 C2         -1.3743   -3.1234   -0.4238 C.2       1 <1>         0.0466
      3 C3         -2.4443   -2.6405   -1.1912 C.2       1 <1>        -0.0381
      4 C4         -3.3323   -3.5151   -1.7786 C.2       1 <1>        -0.0647
      5 O5         -4.3490   -3.0128   -2.5202 O.3       1 <1>        -0.5619
      6 C6         -3.2225   -4.9039   -1.6377 C.2       1 <1>        -0.0101
      7 C7         -2.2175   -5.4622   -0.9073 C.2       1 <1>         0.0374
      8 O8         -2.1403   -6.8055   -0.7592 O.3       1 <1>        -0.3747
      9 C9         -0.8403   -7.3797   -0.5827 C.3       1 <1>         0.1435
     10 C10        -0.0534   -7.2584   -1.8622 C.ar      1 <1>        -0.0489
     11 C11         1.1296   -7.9570   -2.0130 C.ar      1 <1>        -0.0891
     12 C12         1.8555   -7.8487   -3.1850 C.ar      1 <1>        -0.0603
     13 C13         1.3971   -7.0391   -4.2113 C.ar      1 <1>        -0.0027
     14 O14         2.1096   -6.9319   -5.3647 O.3       1 <1>        -0.4304
     15 C15         0.2055   -6.3360   -4.0597 C.ar      1 <1>         0.0018
     16 O16        -0.2490   -5.5403   -5.0646 O.3       1 <1>        -0.4256
     17 C17        -0.5196   -6.4530   -2.8851 C.ar      1 <1>        -0.0483
     18 C18        -0.1334   -6.6242    0.5256 C.2       1 <1>         0.1620
     19 O19         0.4406   -7.1986    1.4202 O.2       1 <1>        -0.4305
     20 C20        -0.1828   -5.1325    0.4543 C.2       1 <1>         0.0993
     21 O21         0.7390   -4.3623    1.0634 O.3       1 <1>        -0.3856
     22 C22        -1.2260   -4.5831   -0.2779 C.2       1 <1>         0.0703
     23 H23        -2.5732   -1.5763   -1.3223 H         1 <1>         0.0568
     24 H24        -3.9483   -5.5444   -2.1169 H         1 <1>         0.1413
     25 H25        -0.9366   -8.4302   -0.3087 H         1 <1>         0.2113
     26 H26         1.4880   -8.5884   -1.2136 H         1 <1>         0.1251
     27 H27         2.7800   -8.3951   -3.3000 H         1 <1>         0.1354
     28 H28         1.8693   -7.5838   -6.0375 H         1 <1>         0.3567
     29 H29        -0.8265   -5.9931   -5.6943 H         1 <1>         0.3597
     30 H30        -1.4444   -5.9084   -2.7649 H         1 <1>         0.1554
     31 H31         1.4383   -4.8179    1.5519 H         1 <1>         0.3887
@<TRIPOS>BOND
     1    1    2 2
     2    2   22 1
     3    2    3 1
     4    3    4 2
     5    3   23 1
     6    4    5 1
     7    4    6 1
     8    6    7 2
     9    6   24 1
    10    7   22 1
    11    7    8 1
    12    8    9 1
    13    9   10 1
    14    9   18 1
    15    9   25 1
    16   10   17 ar
    17   10   11 ar
    18   11   12 ar
    19   11   26 1
    20   12   13 ar
    21   12   27 1
    22   13   14 1
    23   13   15 ar
    24   14   28 1
    25   15   16 1
    26   15   17 ar
    27   16   29 1
    28   17   30 1
    29   18   19 2
    30   18   20 1
    31   20   21 1
    32   20   22 2
    33   21   31 1
@<TRIPOS>Similarity
1.1441
@<TRIPOS>ShapeSim
0.6774
@<TRIPOS>PharmSim
0.4667
# END
# Name:		C1=CC(=C(C=C1C2=C(C(=O)C3=C(C=C(C=C3O2)O)O)O)O)O
# Created and modified by SHAFTS on Thu Mar 11 04:22:19 2021

# 

@<TRIPOS>MOLECULE
C1=CC(=C(C=C1C2=C(C(=O)C3=C(C=C(C=C3O2)O)O)O)O)O
   31    33     0
SMALL
USER_CHARGE


@<TRIPOS>ATOM
      1 O1         -0.5842   -2.3561    0.1046 O.2       1 <1>        -0.5203
      2 C2         -1.3743   -3.1234   -0.4238 C.2       1 <1>         0.0466
      3 C3         -2.4443   -2.6405   -1.1912 C.2       1 <1>        -0.0381
      4 C4         -3.3323   -3.5151   -1.7786 C.2       1 <1>        -0.0647
      5 O5         -4.3490   -3.0128   -2.5202 O.3       1 <1>        -0.5619
      6 C6         -3.2225   -4.9039   -1.6377 C.2       1 <1>        -0.0101
      7 C7         -2.2175   -5.4622   -0.9073 C.2       1 <1>         0.0374
      8 O8         -2.1403   -6.8055   -0.7592 O.3       1 <1>        -0.3747
      9 C9         -0.8403   -7.3797   -0.5827 C.3       1 <1>         0.1435
     10 C10        -0.0534   -7.2584   -1.8622 C.ar      1 <1>        -0.0489
     11 C11         1.1296   -7.9570   -2.0130 C.ar      1 <1>        -0.0891
     12 C12         1.8555   -7.8487   -3.1850 C.ar      1 <1>        -0.0603
     13 C13         1.3971   -7.0391   -4.2113 C.ar      1 <1>        -0.0027
     14 O14         2.1096   -6.9319   -5.3647 O.3       1 <1>        -0.4304
     15 C15         0.2055   -6.3360   -4.0597 C.ar      1 <1>         0.0018
     16 O16        -0.2490   -5.5403   -5.0646 O.3       1 <1>        -0.4256
     17 C17        -0.5196   -6.4530   -2.8851 C.ar      1 <1>        -0.0483
     18 C18        -0.1334   -6.6242    0.5256 C.2       1 <1>         0.1620
     19 O19         0.4406   -7.1986    1.4202 O.2       1 <1>        -0.4305
     20 C20        -0.1828   -5.1325    0.4543 C.2       1 <1>         0.0993
     21 O21         0.7390   -4.3623    1.0634 O.3       1 <1>        -0.3856
     22 C22        -1.2260   -4.5831   -0.2779 C.2       1 <1>         0.0703
     23 H23        -2.5732   -1.5763   -1.3223 H         1 <1>         0.0568
     24 H24        -3.9483   -5.5444   -2.1169 H         1 <1>         0.1413
     25 H25        -0.9366   -8.4302   -0.3087 H         1 <1>         0.2113
     26 H26         1.4880   -8.5884   -1.2136 H         1 <1>         0.1251
     27 H27         2.7800   -8.3951   -3.3000 H         1 <1>         0.1354
     28 H28         1.8693   -7.5838   -6.0375 H         1 <1>         0.3567
     29 H29        -0.8265   -5.9931   -5.6943 H         1 <1>         0.3597
     30 H30        -1.4444   -5.9084   -2.7649 H         1 <1>         0.1554
     31 H31         1.4383   -4.8179    1.5519 H         1 <1>         0.3887
@<TRIPOS>BOND
     1    1    2 2
     2    2   22 1
     3    2    3 1
     4    3    4 2
     5    3   23 1
     6    4    5 1
     7    4    6 1
     8    6    7 2
     9    6   24 1
    10    7   22 1
    11    7    8 1
    12    8    9 1
    13    9   10 1
    14    9   18 1
    15    9   25 1
    16   10   17 ar
    17   10   11 ar
    18   11   12 ar
    19   11   26 1
    20   12   13 ar
    21   12   27 1
    22   13   14 1
    23   13   15 ar
    24   14   28 1
    25   15   16 1
    26   15   17 ar
    27   16   29 1
    28   17   30 1
    29   18   19 2
    30   18   20 1
    31   20   21 1
    32   20   22 2
    33   21   31 1
@<TRIPOS>Similarity
1.1441
@<TRIPOS>ShapeSim
0.6774
@<TRIPOS>PharmSim
0.4667
# END
# Name:		C1=CC(=C(C=C1C2=C(C(=O)C3=C(C=C(C=C3O2)O)O)O)O)O
# Created and modified by SHAFTS on Thu Mar 11 04:22:19 2021

# 

@<TRIPOS>MOLECULE
C1=CC(=C(C=C1C2=C(C(=O)C3=C(C=C(C=C3O2)O)O)O)O)O
   31    33     0
SMALL
USER_CHARGE


@<TRIPOS>ATOM
      1 O1         -0.5842   -2.3561    0.1046 O.2       1 <1>        -0.5203
      2 C2         -1.3743   -3.1234   -0.4238 C.2       1 <1>         0.0466
      3 C3         -2.4443   -2.6405   -1.1912 C.2       1 <1>        -0.0381
      4 C4         -3.3323   -3.5151   -1.7786 C.2       1 <1>        -0.0647
      5 O5         -4.3490   -3.0128   -2.5202 O.3       1 <1>        -0.5619
      6 C6         -3.2225   -4.9039   -1.6377 C.2       1 <1>        -0.0101
      7 C7         -2.2175   -5.4622   -0.9073 C.2       1 <1>         0.0374
      8 O8         -2.1403   -6.8055   -0.7592 O.3       1 <1>        -0.3747
      9 C9         -0.8403   -7.3797   -0.5827 C.3       1 <1>         0.1435
     10 C10        -0.0534   -7.2584   -1.8622 C.ar      1 <1>        -0.0489
     11 C11         1.1296   -7.9570   -2.0130 C.ar      1 <1>        -0.0891
     12 C12         1.8555   -7.8487   -3.1850 C.ar      1 <1>        -0.0603
     13 C13         1.3971   -7.0391   -4.2113 C.ar      1 <1>        -0.0027
     14 O14         2.1096   -6.9319   -5.3647 O.3       1 <1>        -0.4304
     15 C15         0.2055   -6.3360   -4.0597 C.ar      1 <1>         0.0018
     16 O16        -0.2490   -5.5403   -5.0646 O.3       1 <1>        -0.4256
     17 C17        -0.5196   -6.4530   -2.8851 C.ar      1 <1>        -0.0483
     18 C18        -0.1334   -6.6242    0.5256 C.2       1 <1>         0.1620
     19 O19         0.4406   -7.1986    1.4202 O.2       1 <1>        -0.4305
     20 C20        -0.1828   -5.1325    0.4543 C.2       1 <1>         0.0993
     21 O21         0.7390   -4.3623    1.0634 O.3       1 <1>        -0.3856
     22 C22        -1.2260   -4.5831   -0.2779 C.2       1 <1>         0.0703
     23 H23        -2.5732   -1.5763   -1.3223 H         1 <1>         0.0568
     24 H24        -3.9483   -5.5444   -2.1169 H         1 <1>         0.1413
     25 H25        -0.9366   -8.4302   -0.3087 H         1 <1>         0.2113
     26 H26         1.4880   -8.5884   -1.2136 H         1 <1>         0.1251
     27 H27         2.7800   -8.3951   -3.3000 H         1 <1>         0.1354
     28 H28         1.8693   -7.5838   -6.0375 H         1 <1>         0.3567
     29 H29        -0.8265   -5.9931   -5.6943 H         1 <1>         0.3597
     30 H30        -1.4444   -5.9084   -2.7649 H         1 <1>         0.1554
     31 H31         1.4383   -4.8179    1.5519 H         1 <1>         0.3887
@<TRIPOS>BOND
     1    1    2 2
     2    2   22 1
     3    2    3 1
     4    3    4 2
     5    3   23 1
     6    4    5 1
     7    4    6 1
     8    6    7 2
     9    6   24 1
    10    7   22 1
    11    7    8 1
    12    8    9 1
    13    9   10 1
    14    9   18 1
    15    9   25 1
    16   10   17 ar
    17   10   11 ar
    18   11   12 ar
    19   11   26 1
    20   12   13 ar
    21   12   27 1
    22   13   14 1
    23   13   15 ar
    24   14   28 1
    25   15   16 1
    26   15   17 ar
    27   16   29 1
    28   17   30 1
    29   18   19 2
    30   18   20 1
    31   20   21 1
    32   20   22 2
    33   21   31 1
@<TRIPOS>Similarity
1.1441
@<TRIPOS>ShapeSim
0.6774
@<TRIPOS>PharmSim
0.4667
# END
# Name:		C1=CC(=C(C=C1C2=C(C(=O)C3=C(C=C(C=C3O2)O)O)O)O)O
# Created and modified by SHAFTS on Thu Mar 11 04:22:19 2021

# 

@<TRIPOS>MOLECULE
C1=CC(=C(C=C1C2=C(C(=O)C3=C(C=C(C=C3O2)O)O)O)O)O
   31    33     0
SMALL
USER_CHARGE


@<TRIPOS>ATOM
      1 O1         -0.5842   -2.3561    0.1046 O.2       1 <1>        -0.5203
      2 C2         -1.3743   -3.1234   -0.4238 C.2       1 <1>         0.0466
      3 C3         -2.4443   -2.6405   -1.1912 C.2       1 <1>        -0.0381
      4 C4         -3.3323   -3.5151   -1.7786 C.2       1 <1>        -0.0647
      5 O5         -4.3490   -3.0128   -2.5202 O.3       1 <1>        -0.5619
      6 C6         -3.2225   -4.9039   -1.6377 C.2       1 <1>        -0.0101
      7 C7         -2.2175   -5.4622   -0.9073 C.2       1 <1>         0.0374
      8 O8         -2.1403   -6.8055   -0.7592 O.3       1 <1>        -0.3747
      9 C9         -0.8403   -7.3797   -0.5827 C.3       1 <1>         0.1435
     10 C10        -0.0534   -7.2584   -1.8622 C.ar      1 <1>        -0.0489
     11 C11         1.1296   -7.9570   -2.0130 C.ar      1 <1>        -0.0891
     12 C12         1.8555   -7.8487   -3.1850 C.ar      1 <1>        -0.0603
     13 C13         1.3971   -7.0391   -4.2113 C.ar      1 <1>        -0.0027
     14 O14         2.1096   -6.9319   -5.3647 O.3       1 <1>        -0.4304
     15 C15         0.2055   -6.3360   -4.0597 C.ar      1 <1>         0.0018
     16 O16        -0.2490   -5.5403   -5.0646 O.3       1 <1>        -0.4256
     17 C17        -0.5196   -6.4530   -2.8851 C.ar      1 <1>        -0.0483
     18 C18        -0.1334   -6.6242    0.5256 C.2       1 <1>         0.1620
     19 O19         0.4406   -7.1986    1.4202 O.2       1 <1>        -0.4305
     20 C20        -0.1828   -5.1325    0.4543 C.2       1 <1>         0.0993
     21 O21         0.7390   -4.3623    1.0634 O.3       1 <1>        -0.3856
     22 C22        -1.2260   -4.5831   -0.2779 C.2       1 <1>         0.0703
     23 H23        -2.5732   -1.5763   -1.3223 H         1 <1>         0.0568
     24 H24        -3.9483   -5.5444   -2.1169 H         1 <1>         0.1413
     25 H25        -0.9366   -8.4302   -0.3087 H         1 <1>         0.2113
     26 H26         1.4880   -8.5884   -1.2136 H         1 <1>         0.1251
     27 H27         2.7800   -8.3951   -3.3000 H         1 <1>         0.1354
     28 H28         1.8693   -7.5838   -6.0375 H         1 <1>         0.3567
     29 H29        -0.8265   -5.9931   -5.6943 H         1 <1>         0.3597
     30 H30        -1.4444   -5.9084   -2.7649 H         1 <1>         0.1554
     31 H31         1.4383   -4.8179    1.5519 H         1 <1>         0.3887
@<TRIPOS>BOND
     1    1    2 2
     2    2   22 1
     3    2    3 1
     4    3    4 2
     5    3   23 1
     6    4    5 1
     7    4    6 1
     8    6    7 2
     9    6   24 1
    10    7   22 1
    11    7    8 1
    12    8    9 1
    13    9   10 1
    14    9   18 1
    15    9   25 1
    16   10   17 ar
    17   10   11 ar
    18   11   12 ar
    19   11   26 1
    20   12   13 ar
    21   12   27 1
    22   13   14 1
    23   13   15 ar
    24   14   28 1
    25   15   16 1
    26   15   17 ar
    27   16   29 1
    28   17   30 1
    29   18   19 2
    30   18   20 1
    31   20   21 1
    32   20   22 2
    33   21   31 1
@<TRIPOS>Similarity
1.1441
@<TRIPOS>ShapeSim
0.6774
@<TRIPOS>PharmSim
0.4667
# END
# Name:		C1=CC=C(C(=C1)C2=C(C(=O)NC2=O)NC3=CC(=C(C=C3)O)Cl)[N+](=O)[O-]
# Created and modified by SHAFTS on Thu Mar 11 04:22:19 2021

# 

@<TRIPOS>MOLECULE
C1=CC=C(C(=C1)C2=C(C(=O)NC2=O)NC3=CC(=C(C=C3)O)Cl)[N+](=O)[O-]
   35    37     0
SMALL
USER_CHARGE


@<TRIPOS>ATOM
      1 O1          0.6970   -6.9554    0.9398 O.2       1 <1>        -0.4115
      2 C2         -0.0551   -6.0203    1.1237 C.2       1 <1>         0.1926
      3 N3          0.0109   -5.1465    2.1436 N.am      1 <1>        -0.2104
      4 C4         -0.9745   -4.2384    2.0400 C.2       1 <1>         0.1735
      5 O5         -1.1761   -3.3211    2.8109 O.2       1 <1>        -0.4209
      6 C6         -1.7703   -4.5394    0.8353 C.2       1 <1>         0.1158
      7 C7         -2.9483   -3.7934    0.3434 C.ar      1 <1>         0.0131
      8 C8         -4.2306   -4.3207    0.5069 C.ar      1 <1>        -0.0560
      9 C9         -5.3254   -3.6195    0.0456 C.ar      1 <1>        -0.0756
     10 C10        -5.1547   -2.3962   -0.5780 C.ar      1 <1>        -0.0732
     11 C11        -3.8864   -1.8676   -0.7433 C.ar      1 <1>        -0.0355
     12 C12        -2.7837   -2.5555   -0.2816 C.ar      1 <1>         0.1006
     13 N13        -1.4279   -1.9885   -0.4589 N.pl3     1 <1>         0.0124
     14 O14        -1.2851   -0.9132   -1.0129 O.2       1 <1>        -0.2313
     15 O15        -0.4550   -2.5971   -0.0507 O.2       1 <1>        -0.2367
     16 C16        -1.1988   -5.6438    0.2584 C.2       1 <1>         0.1059
     17 N17        -1.6099   -6.2812   -0.8916 N.pl3     1 <1>        -0.3397
     18 C18        -0.7267   -6.4252   -1.9641 C.ar      1 <1>        -0.0520
     19 C19         0.5142   -5.8010   -1.9315 C.ar      1 <1>        -0.0555
     20 C20         1.3871   -5.9441   -2.9920 C.ar      1 <1>        -0.0496
     21 C21         1.0258   -6.7103   -4.0900 C.ar      1 <1>        -0.0070
     22 O22         1.8862   -6.8504   -5.1336 O.3       1 <1>        -0.4300
     23 C23        -0.2142   -7.3349   -4.1244 C.ar      1 <1>         0.0269
     24 Cl24       -0.6653   -8.2937   -5.4996 Cl        1 <1>        -0.1230
     25 C25        -1.0864   -7.1977   -3.0622 C.ar      1 <1>        -0.0333
     26 H26         0.6734   -5.1687    2.8518 H         1 <1>         0.3663
     27 H27        -4.3652   -5.2757    0.9932 H         1 <1>         0.1497
     28 H28        -6.3179   -4.0264    0.1711 H         1 <1>         0.1519
     29 H29        -6.0152   -1.8514   -0.9376 H         1 <1>         0.1432
     30 H30        -3.7601   -0.9124   -1.2312 H         1 <1>         0.1675
     31 H31        -2.5126   -6.6302   -0.9564 H         1 <1>         0.3231
     32 H32         0.7959   -5.2037   -1.0769 H         1 <1>         0.1295
     33 H33         2.3516   -5.4589   -2.9663 H         1 <1>         0.1518
     34 H34         2.4844   -7.6058   -5.0516 H         1 <1>         0.3591
     35 H35        -2.0505   -7.6836   -3.0885 H         1 <1>         0.1386
@<TRIPOS>BOND
     1    1    2 2
     2    2   16 1
     3    2    3 am
     4    3    4 am
     5    3   26 1
     6    4    5 2
     7    4    6 1
     8    6    7 1
     9    6   16 2
    10    7   12 ar
    11    7    8 ar
    12    8    9 ar
    13    8   27 1
    14    9   10 ar
    15    9   28 1
    16   10   11 ar
    17   10   29 1
    18   11   12 ar
    19   11   30 1
    20   12   13 1
    21   13   14 2
    22   13   15 2
    23   16   17 1
    24   17   18 1
    25   17   31 1
    26   18   25 ar
    27   18   19 ar
    28   19   20 ar
    29   19   32 1
    30   20   21 ar
    31   20   33 1
    32   21   22 1
    33   21   23 ar
    34   22   34 1
    35   23   24 1
    36   23   25 ar
    37   25   35 1
@<TRIPOS>Similarity
1.1328
@<TRIPOS>ShapeSim
0.6993
@<TRIPOS>PharmSim
0.4335
# END
# Name:		C1=CC=C2C(=C1)C(=C(N2)C3=C(NC4=C3C=CC(=C4)Br)O)N=O
# Created and modified by SHAFTS on Thu Mar 11 04:22:19 2021

# 

@<TRIPOS>MOLECULE
C1=CC=C2C(=C1)C(=C(N2)C3=C(NC4=C3C=CC(=C4)Br)O)N=O
   32    35     0
SMALL
USER_CHARGE


@<TRIPOS>ATOM
      1 O1         -0.9200   -1.2991    0.3027 O.2       1 <1>        -0.1802
      2 N2         -0.5684   -2.4434    0.0782 N.2       1 <1>        -0.1479
      3 C3         -1.4748   -3.3904   -0.1042 C.2       1 <1>         0.0403
      4 C4         -1.2394   -4.7486   -0.3644 C.2       1 <1>         0.0114
      5 C5          0.1189   -5.3898   -0.4858 C.3       1 <1>         0.1393
      6 C6          0.2406   -6.5594    0.4677 C.2       1 <1>         0.1365
      7 O7          0.1638   -6.5138    1.6773 O.2       1 <1>        -0.4449
      8 N8          0.4489   -7.6577   -0.2780 N.am      1 <1>        -0.3001
      9 C9          0.4842   -7.3706   -1.6429 C.ar      1 <1>        -0.0405
     10 C10         0.6733   -8.2029   -2.7440 C.ar      1 <1>        -0.0437
     11 C11         0.6681   -7.6758   -4.0201 C.ar      1 <1>        -0.0207
     12 Br12        0.9263   -8.8133   -5.5086 Br        1 <1>        -0.0852
     13 C13         0.4744   -6.3200   -4.2157 C.ar      1 <1>        -0.0653
     14 C14         0.2854   -5.4875   -3.1260 C.ar      1 <1>        -0.0716
     15 C15         0.2912   -6.0107   -1.8530 C.ar      1 <1>        -0.0245
     16 N16        -2.4078   -5.3849   -0.4869 N.pl3     1 <1>        -0.3316
     17 C17        -3.4699   -4.5134   -0.3205 C.ar      1 <1>        -0.0490
     18 C18        -4.8487   -4.6879   -0.3546 C.ar      1 <1>        -0.0716
     19 C19        -5.6852   -3.6105   -0.1486 C.ar      1 <1>        -0.0914
     20 C20        -5.1650   -2.3494    0.0934 C.ar      1 <1>        -0.0919
     21 C21        -3.7985   -2.1578    0.1308 C.ar      1 <1>        -0.0780
     22 C22        -2.9468   -3.2367   -0.0694 C.ar      1 <1>        -0.0458
     23 H23         0.9041   -4.6575   -0.2973 H         1 <1>         0.1975
     24 H24         0.5620   -8.5479    0.0905 H         1 <1>         0.3347
     25 H25         0.8247   -9.2623   -2.5991 H         1 <1>         0.1448
     26 H26         0.4704   -5.9122   -5.2157 H         1 <1>         0.1468
     27 H27         0.1339   -4.4285   -3.2746 H         1 <1>         0.1485
     28 H28        -2.4997   -6.3333   -0.6690 H         1 <1>         0.3499
     29 H29        -5.2647   -5.6667   -0.5428 H         1 <1>         0.1310
     30 H30        -6.7557   -3.7513   -0.1764 H         1 <1>         0.1331
     31 H31        -5.8305   -1.5139    0.2529 H         1 <1>         0.1300
     32 H32        -3.3934   -1.1745    0.3191 H         1 <1>         0.1499
@<TRIPOS>BOND
     1    1    2 2
     2    2    3 1
     3    3   22 1
     4    3    4 2
     5    4    5 1
     6    4   16 1
     7    5   15 1
     8    5    6 1
     9    5   23 1
    10    6    7 2
    11    6    8 am
    12    8    9 1
    13    8   24 1
    14    9   15 ar
    15    9   10 ar
    16   10   11 ar
    17   10   25 1
    18   11   12 1
    19   11   13 ar
    20   13   14 ar
    21   13   26 1
    22   14   15 ar
    23   14   27 1
    24   16   17 1
    25   16   28 1
    26   17   22 ar
    27   17   18 ar
    28   18   19 ar
    29   18   29 1
    30   19   20 ar
    31   19   30 1
    32   20   21 ar
    33   20   31 1
    34   21   22 ar
    35   21   32 1
@<TRIPOS>Similarity
1.1132
@<TRIPOS>ShapeSim
0.7798
@<TRIPOS>PharmSim
0.3333
# END
# Name:		C1=CC=C2C(=C1)C(=C(N2)C3=C(NC4=C3C=CC(=C4)Br)O)N=O
# Created and modified by SHAFTS on Thu Mar 11 04:22:19 2021

# 

@<TRIPOS>MOLECULE
C1=CC=C2C(=C1)C(=C(N2)C3=C(NC4=C3C=CC(=C4)Br)O)N=O
   32    35     0
SMALL
USER_CHARGE


@<TRIPOS>ATOM
      1 O1         -0.9200   -1.2991    0.3027 O.2       1 <1>        -0.1802
      2 N2         -0.5684   -2.4434    0.0782 N.2       1 <1>        -0.1479
      3 C3         -1.4748   -3.3904   -0.1042 C.2       1 <1>         0.0403
      4 C4         -1.2394   -4.7486   -0.3644 C.2       1 <1>         0.0114
      5 C5          0.1189   -5.3898   -0.4858 C.3       1 <1>         0.1393
      6 C6          0.2406   -6.5594    0.4677 C.2       1 <1>         0.1365
      7 O7          0.1638   -6.5138    1.6773 O.2       1 <1>        -0.4449
      8 N8          0.4489   -7.6577   -0.2780 N.am      1 <1>        -0.3001
      9 C9          0.4842   -7.3706   -1.6429 C.ar      1 <1>        -0.0405
     10 C10         0.6733   -8.2029   -2.7440 C.ar      1 <1>        -0.0437
     11 C11         0.6681   -7.6758   -4.0201 C.ar      1 <1>        -0.0207
     12 Br12        0.9263   -8.8133   -5.5086 Br        1 <1>        -0.0852
     13 C13         0.4744   -6.3200   -4.2157 C.ar      1 <1>        -0.0653
     14 C14         0.2854   -5.4875   -3.1260 C.ar      1 <1>        -0.0716
     15 C15         0.2912   -6.0107   -1.8530 C.ar      1 <1>        -0.0245
     16 N16        -2.4078   -5.3849   -0.4869 N.pl3     1 <1>        -0.3316
     17 C17        -3.4699   -4.5134   -0.3205 C.ar      1 <1>        -0.0490
     18 C18        -4.8487   -4.6879   -0.3546 C.ar      1 <1>        -0.0716
     19 C19        -5.6852   -3.6105   -0.1486 C.ar      1 <1>        -0.0914
     20 C20        -5.1650   -2.3494    0.0934 C.ar      1 <1>        -0.0919
     21 C21        -3.7985   -2.1578    0.1308 C.ar      1 <1>        -0.0780
     22 C22        -2.9468   -3.2367   -0.0694 C.ar      1 <1>        -0.0458
     23 H23         0.9041   -4.6575   -0.2973 H         1 <1>         0.1975
     24 H24         0.5620   -8.5479    0.0905 H         1 <1>         0.3347
     25 H25         0.8247   -9.2623   -2.5991 H         1 <1>         0.1448
     26 H26         0.4704   -5.9122   -5.2157 H         1 <1>         0.1468
     27 H27         0.1339   -4.4285   -3.2746 H         1 <1>         0.1485
     28 H28        -2.4997   -6.3333   -0.6690 H         1 <1>         0.3499
     29 H29        -5.2647   -5.6667   -0.5428 H         1 <1>         0.1310
     30 H30        -6.7557   -3.7513   -0.1764 H         1 <1>         0.1331
     31 H31        -5.8305   -1.5139    0.2529 H         1 <1>         0.1300
     32 H32        -3.3934   -1.1745    0.3191 H         1 <1>         0.1499
@<TRIPOS>BOND
     1    1    2 2
     2    2    3 1
     3    3   22 1
     4    3    4 2
     5    4    5 1
     6    4   16 1
     7    5   15 1
     8    5    6 1
     9    5   23 1
    10    6    7 2
    11    6    8 am
    12    8    9 1
    13    8   24 1
    14    9   15 ar
    15    9   10 ar
    16   10   11 ar
    17   10   25 1
    18   11   12 1
    19   11   13 ar
    20   13   14 ar
    21   13   26 1
    22   14   15 ar
    23   14   27 1
    24   16   17 1
    25   16   28 1
    26   17   22 ar
    27   17   18 ar
    28   18   19 ar
    29   18   29 1
    30   19   20 ar
    31   19   30 1
    32   20   21 ar
    33   20   31 1
    34   21   22 ar
    35   21   32 1
@<TRIPOS>Similarity
1.1132
@<TRIPOS>ShapeSim
0.7798
@<TRIPOS>PharmSim
0.3333
# END
# Name:		C1=CC=C2C(=C1)C(=C(N2)C3=C(NC4=C3C=CC(=C4)Br)O)N=O
# Created and modified by SHAFTS on Thu Mar 11 04:22:19 2021

# 

@<TRIPOS>MOLECULE
C1=CC=C2C(=C1)C(=C(N2)C3=C(NC4=C3C=CC(=C4)Br)O)N=O
   32    35     0
SMALL
USER_CHARGE


@<TRIPOS>ATOM
      1 O1         -0.9200   -1.2991    0.3027 O.2       1 <1>        -0.1802
      2 N2         -0.5684   -2.4434    0.0782 N.2       1 <1>        -0.1479
      3 C3         -1.4748   -3.3904   -0.1042 C.2       1 <1>         0.0403
      4 C4         -1.2394   -4.7486   -0.3644 C.2       1 <1>         0.0114
      5 C5          0.1189   -5.3898   -0.4858 C.3       1 <1>         0.1393
      6 C6          0.2406   -6.5594    0.4677 C.2       1 <1>         0.1365
      7 O7          0.1638   -6.5138    1.6773 O.2       1 <1>        -0.4449
      8 N8          0.4489   -7.6577   -0.2780 N.am      1 <1>        -0.3001
      9 C9          0.4842   -7.3706   -1.6429 C.ar      1 <1>        -0.0405
     10 C10         0.6733   -8.2029   -2.7440 C.ar      1 <1>        -0.0437
     11 C11         0.6681   -7.6758   -4.0201 C.ar      1 <1>        -0.0207
     12 Br12        0.9263   -8.8133   -5.5086 Br        1 <1>        -0.0852
     13 C13         0.4744   -6.3200   -4.2157 C.ar      1 <1>        -0.0653
     14 C14         0.2854   -5.4875   -3.1260 C.ar      1 <1>        -0.0716
     15 C15         0.2912   -6.0107   -1.8530 C.ar      1 <1>        -0.0245
     16 N16        -2.4078   -5.3849   -0.4869 N.pl3     1 <1>        -0.3316
     17 C17        -3.4699   -4.5134   -0.3205 C.ar      1 <1>        -0.0490
     18 C18        -4.8487   -4.6879   -0.3546 C.ar      1 <1>        -0.0716
     19 C19        -5.6852   -3.6105   -0.1486 C.ar      1 <1>        -0.0914
     20 C20        -5.1650   -2.3494    0.0934 C.ar      1 <1>        -0.0919
     21 C21        -3.7985   -2.1578    0.1308 C.ar      1 <1>        -0.0780
     22 C22        -2.9468   -3.2367   -0.0694 C.ar      1 <1>        -0.0458
     23 H23         0.9041   -4.6575   -0.2973 H         1 <1>         0.1975
     24 H24         0.5620   -8.5479    0.0905 H         1 <1>         0.3347
     25 H25         0.8247   -9.2623   -2.5991 H         1 <1>         0.1448
     26 H26         0.4704   -5.9122   -5.2157 H         1 <1>         0.1468
     27 H27         0.1339   -4.4285   -3.2746 H         1 <1>         0.1485
     28 H28        -2.4997   -6.3333   -0.6690 H         1 <1>         0.3499
     29 H29        -5.2647   -5.6667   -0.5428 H         1 <1>         0.1310
     30 H30        -6.7557   -3.7513   -0.1764 H         1 <1>         0.1331
     31 H31        -5.8305   -1.5139    0.2529 H         1 <1>         0.1300
     32 H32        -3.3934   -1.1745    0.3191 H         1 <1>         0.1499
@<TRIPOS>BOND
     1    1    2 2
     2    2    3 1
     3    3   22 1
     4    3    4 2
     5    4    5 1
     6    4   16 1
     7    5   15 1
     8    5    6 1
     9    5   23 1
    10    6    7 2
    11    6    8 am
    12    8    9 1
    13    8   24 1
    14    9   15 ar
    15    9   10 ar
    16   10   11 ar
    17   10   25 1
    18   11   12 1
    19   11   13 ar
    20   13   14 ar
    21   13   26 1
    22   14   15 ar
    23   14   27 1
    24   16   17 1
    25   16   28 1
    26   17   22 ar
    27   17   18 ar
    28   18   19 ar
    29   18   29 1
    30   19   20 ar
    31   19   30 1
    32   20   21 ar
    33   20   31 1
    34   21   22 ar
    35   21   32 1
@<TRIPOS>Similarity
1.1132
@<TRIPOS>ShapeSim
0.7798
@<TRIPOS>PharmSim
0.3333
# END
# Name:		C1=C(C=C(C(=C1O)O)O)C2=C(C(=O)C3=C(C=C(C=C3O2)O)O)O
# Created and modified by SHAFTS on Thu Mar 11 04:22:19 2021

# 

@<TRIPOS>MOLECULE
C1=C(C=C(C(=C1O)O)O)C2=C(C(=O)C3=C(C=C(C=C3O2)O)O)O
   32    34     0
SMALL
USER_CHARGE


@<TRIPOS>ATOM
      1 O1         -0.6149   -2.3963    0.0230 O.2       1 <1>        -0.5143
      2 C2         -1.3847   -3.2192   -0.4486 C.2       1 <1>         0.0495
      3 C3         -2.5256   -2.8156   -1.1572 C.2       1 <1>        -0.0373
      4 C4         -3.3897   -3.7527   -1.6805 C.2       1 <1>        -0.0629
      5 O5         -4.4774   -3.3261   -2.3668 O.3       1 <1>        -0.5616
      6 C6         -3.1850   -5.1297   -1.5297 C.2       1 <1>        -0.0076
      7 C7         -2.1061   -5.6131   -0.8531 C.2       1 <1>         0.0391
      8 O8         -1.9364   -6.9466   -0.6936 O.3       1 <1>        -0.3737
      9 C9         -0.5948   -7.4363   -0.5873 C.3       1 <1>         0.1454
     10 C10         0.1071   -7.2867   -1.9124 C.ar      1 <1>        -0.0409
     11 C11         1.3226   -7.9105   -2.1228 C.ar      1 <1>        -0.0536
     12 C12         1.9715   -7.7757   -3.3408 C.ar      1 <1>         0.0037
     13 O13         3.1671   -8.3901   -3.5470 O.3       1 <1>        -0.4265
     14 C14         1.3981   -7.0123   -4.3507 C.ar      1 <1>         0.0361
     15 O15         2.0317   -6.8780   -5.5478 O.3       1 <1>        -0.4203
     16 C16         0.1759   -6.3868   -4.1352 C.ar      1 <1>         0.0125
     17 O17        -0.3894   -5.6391   -5.1205 O.3       1 <1>        -0.4188
     18 C18        -0.4690   -6.5308   -2.9161 C.ar      1 <1>        -0.0443
     19 C19         0.1266   -6.6211    0.4682 C.2       1 <1>         0.1626
     20 O20         0.7865   -7.1447    1.3341 O.2       1 <1>        -0.4304
     21 C21        -0.0204   -5.1366    0.3819 C.2       1 <1>         0.0994
     22 O22         0.8851   -4.3013    0.9262 O.3       1 <1>        -0.3856
     23 C23        -1.1369   -4.6645   -0.2939 C.2       1 <1>         0.0711
     24 H24        -2.7285   -1.7637   -1.2933 H         1 <1>         0.0569
     25 H25        -3.8958   -5.8212   -1.9572 H         1 <1>         0.1439
     26 H26        -0.6089   -8.4863   -0.2953 H         1 <1>         0.2121
     27 H27         1.7676   -8.5032   -1.3373 H         1 <1>         0.1358
     28 H28         3.0928   -9.2835   -3.9095 H         1 <1>         0.3596
     29 H29         1.7947   -7.5550   -6.1963 H         1 <1>         0.3538
     30 H30        -0.9727   -6.1389   -5.7080 H         1 <1>         0.3631
     31 H31        -1.4190   -6.0454   -2.7480 H         1 <1>         0.1545
     32 H32         1.6389   -4.7050    1.3779 H         1 <1>         0.3887
@<TRIPOS>BOND
     1    1    2 2
     2    2   23 1
     3    2    3 1
     4    3    4 2
     5    3   24 1
     6    4    5 1
     7    4    6 1
     8    6    7 2
     9    6   25 1
    10    7   23 1
    11    7    8 1
    12    8    9 1
    13    9   10 1
    14    9   19 1
    15    9   26 1
    16   10   18 ar
    17   10   11 ar
    18   11   12 ar
    19   11   27 1
    20   12   13 1
    21   12   14 ar
    22   13   28 1
    23   14   15 1
    24   14   16 ar
    25   15   29 1
    26   16   17 1
    27   16   18 ar
    28   17   30 1
    29   18   31 1
    30   19   20 2
    31   19   21 1
    32   21   22 1
    33   21   23 2
    34   22   32 1
@<TRIPOS>Similarity
1.1124
@<TRIPOS>ShapeSim
0.6786
@<TRIPOS>PharmSim
0.4337
# END
# Name:		OC1=CC(O)=C(C(C(O)=C(C2=CC(O)=C(O)C(O)=C2)O3)=O)C3=C1
# Created and modified by SHAFTS on Thu Mar 11 04:22:19 2021

# 

@<TRIPOS>MOLECULE
OC1=CC(O)=C(C(C(O)=C(C2=CC(O)=C(O)C(O)=C2)O3)=O)C3=C1
   32    34     0
SMALL
USER_CHARGE


@<TRIPOS>ATOM
      1 O1         -0.6149   -2.3963    0.0230 O.2       1 <1>        -0.5143
      2 C2         -1.3847   -3.2192   -0.4486 C.2       1 <1>         0.0495
      3 C3         -2.5256   -2.8156   -1.1572 C.2       1 <1>        -0.0373
      4 C4         -3.3897   -3.7527   -1.6805 C.2       1 <1>        -0.0629
      5 O5         -4.4774   -3.3261   -2.3668 O.3       1 <1>        -0.5616
      6 C6         -3.1850   -5.1297   -1.5297 C.2       1 <1>        -0.0076
      7 C7         -2.1061   -5.6131   -0.8531 C.2       1 <1>         0.0391
      8 O8         -1.9364   -6.9466   -0.6936 O.3       1 <1>        -0.3737
      9 C9         -0.5948   -7.4363   -0.5873 C.3       1 <1>         0.1454
     10 C10         0.1071   -7.2867   -1.9124 C.ar      1 <1>        -0.0409
     11 C11         1.3226   -7.9105   -2.1228 C.ar      1 <1>        -0.0536
     12 C12         1.9715   -7.7757   -3.3408 C.ar      1 <1>         0.0037
     13 O13         3.1671   -8.3901   -3.5470 O.3       1 <1>        -0.4265
     14 C14         1.3981   -7.0123   -4.3507 C.ar      1 <1>         0.0361
     15 O15         2.0317   -6.8780   -5.5478 O.3       1 <1>        -0.4203
     16 C16         0.1759   -6.3868   -4.1352 C.ar      1 <1>         0.0125
     17 O17        -0.3894   -5.6391   -5.1205 O.3       1 <1>        -0.4188
     18 C18        -0.4690   -6.5308   -2.9161 C.ar      1 <1>        -0.0443
     19 C19         0.1266   -6.6211    0.4682 C.2       1 <1>         0.1626
     20 O20         0.7865   -7.1447    1.3341 O.2       1 <1>        -0.4304
     21 C21        -0.0204   -5.1366    0.3819 C.2       1 <1>         0.0994
     22 O22         0.8851   -4.3013    0.9262 O.3       1 <1>        -0.3856
     23 C23        -1.1369   -4.6645   -0.2939 C.2       1 <1>         0.0711
     24 H24        -2.7285   -1.7637   -1.2933 H         1 <1>         0.0569
     25 H25        -3.8958   -5.8212   -1.9572 H         1 <1>         0.1439
     26 H26        -0.6089   -8.4863   -0.2953 H         1 <1>         0.2121
     27 H27         1.7676   -8.5032   -1.3373 H         1 <1>         0.1358
     28 H28         3.0928   -9.2835   -3.9095 H         1 <1>         0.3596
     29 H29         1.7947   -7.5550   -6.1963 H         1 <1>         0.3538
     30 H30        -0.9727   -6.1389   -5.7080 H         1 <1>         0.3631
     31 H31        -1.4190   -6.0454   -2.7480 H         1 <1>         0.1545
     32 H32         1.6389   -4.7050    1.3779 H         1 <1>         0.3887
@<TRIPOS>BOND
     1    1    2 2
     2    2   23 1
     3    2    3 1
     4    3    4 2
     5    3   24 1
     6    4    5 1
     7    4    6 1
     8    6    7 2
     9    6   25 1
    10    7   23 1
    11    7    8 1
    12    8    9 1
    13    9   10 1
    14    9   19 1
    15    9   26 1
    16   10   18 ar
    17   10   11 ar
    18   11   12 ar
    19   11   27 1
    20   12   13 1
    21   12   14 ar
    22   13   28 1
    23   14   15 1
    24   14   16 ar
    25   15   29 1
    26   16   17 1
    27   16   18 ar
    28   17   30 1
    29   18   31 1
    30   19   20 2
    31   19   21 1
    32   21   22 1
    33   21   23 2
    34   22   32 1
@<TRIPOS>Similarity
1.1124
@<TRIPOS>ShapeSim
0.6786
@<TRIPOS>PharmSim
0.4337
# END
# Name:		C1=CC(=CC=C1C=CC2=CC(=CC(=C2)O)O)O
# Created and modified by SHAFTS on Thu Mar 11 04:22:19 2021

# 

@<TRIPOS>MOLECULE
C1=CC(=CC=C1C=CC2=CC(=CC(=C2)O)O)O
   29    30     0
SMALL
USER_CHARGE


@<TRIPOS>ATOM
      1 O1         -6.1234   -1.3150    0.3566 O.3       1 <1>        -0.4408
      2 C2         -5.0917   -2.1548    0.0807 C.ar      1 <1>        -0.0414
      3 C3         -4.5409   -2.9305    1.0927 C.ar      1 <1>        -0.0674
      4 C4         -3.4944   -3.7838    0.8176 C.ar      1 <1>        -0.0871
      5 C5         -2.9872   -3.8678   -0.4823 C.ar      1 <1>        -0.0878
      6 C6         -1.8685   -4.7788   -0.7817 C.2       1 <1>        -0.0876
      7 C7         -1.3830   -4.8579   -2.0309 C.2       1 <1>        -0.0850
      8 C8         -0.2641   -5.7693   -2.3304 C.ar      1 <1>        -0.0762
      9 C9          0.2892   -6.5561   -1.3175 C.ar      1 <1>        -0.0563
     10 C10         1.3400   -7.4111   -1.6040 C.ar      1 <1>        -0.0312
     11 O11         1.8790   -8.1772   -0.6193 O.3       1 <1>        -0.4381
     12 C12         1.8432   -7.4875   -2.8949 C.ar      1 <1>        -0.0333
     13 C13         1.2971   -6.7079   -3.9047 C.ar      1 <1>        -0.0296
     14 O14         1.7939   -6.7873   -5.1671 O.3       1 <1>        -0.4377
     15 C15         0.2429   -5.8533   -3.6293 C.ar      1 <1>        -0.0542
     16 C16        -3.5447   -3.0850   -1.4973 C.ar      1 <1>        -0.0871
     17 C17        -4.5948   -2.2390   -1.2137 C.ar      1 <1>        -0.0674
     18 H18        -6.9964   -1.7189    0.2581 H         1 <1>         0.3538
     19 H19        -4.9332   -2.8647    2.0967 H         1 <1>         0.1259
     20 H20        -3.0665   -4.3863    1.6051 H         1 <1>         0.1290
     21 H21        -1.4392   -5.3831    0.0039 H         1 <1>         0.1299
     22 H22        -1.8123   -4.2536   -2.8164 H         1 <1>         0.1274
     23 H23        -0.1018   -6.4974   -0.3125 H         1 <1>         0.1346
     24 H24         1.4600   -9.0431   -0.5207 H         1 <1>         0.3544
     25 H25         2.6629   -8.1556   -3.1145 H         1 <1>         0.1367
     26 H26         1.3623   -7.4542   -5.7184 H         1 <1>         0.3544
     27 H27        -0.1815   -5.2469   -4.4158 H         1 <1>         0.1372
     28 H28        -3.1562   -3.1465   -2.5031 H         1 <1>         0.1290
     29 H29        -5.0265   -1.6340   -1.9973 H         1 <1>         0.1259
@<TRIPOS>BOND
     1    1    2 1
     2    1   18 1
     3    2   17 ar
     4    2    3 ar
     5    3    4 ar
     6    3   19 1
     7    4    5 ar
     8    4   20 1
     9    5    6 1
    10    5   16 ar
    11    6    7 2
    12    6   21 1
    13    7    8 1
    14    7   22 1
    15    8   15 ar
    16    8    9 ar
    17    9   10 ar
    18    9   23 1
    19   10   11 1
    20   10   12 ar
    21   11   24 1
    22   12   13 ar
    23   12   25 1
    24   13   14 1
    25   13   15 ar
    26   14   26 1
    27   15   27 1
    28   16   17 ar
    29   16   28 1
    30   17   29 1
@<TRIPOS>Similarity
1.1086
@<TRIPOS>ShapeSim
0.6902
@<TRIPOS>PharmSim
0.4184
# END
# Name:		C1=CC(=CC=C1/C=C/C2=CC(=CC(=C2)O)O)O
# Created and modified by SHAFTS on Thu Mar 11 04:22:19 2021

# 

@<TRIPOS>MOLECULE
C1=CC(=CC=C1/C=C/C2=CC(=CC(=C2)O)O)O
   29    30     0
SMALL
USER_CHARGE


@<TRIPOS>ATOM
      1 O1         -6.1234   -1.3150    0.3566 O.3       1 <1>        -0.4408
      2 C2         -5.0917   -2.1548    0.0807 C.ar      1 <1>        -0.0414
      3 C3         -4.5409   -2.9305    1.0927 C.ar      1 <1>        -0.0674
      4 C4         -3.4944   -3.7838    0.8176 C.ar      1 <1>        -0.0871
      5 C5         -2.9872   -3.8678   -0.4823 C.ar      1 <1>        -0.0878
      6 C6         -1.8685   -4.7788   -0.7817 C.2       1 <1>        -0.0876
      7 C7         -1.3830   -4.8579   -2.0309 C.2       1 <1>        -0.0850
      8 C8         -0.2641   -5.7693   -2.3304 C.ar      1 <1>        -0.0762
      9 C9          0.2892   -6.5561   -1.3175 C.ar      1 <1>        -0.0563
     10 C10         1.3400   -7.4111   -1.6040 C.ar      1 <1>        -0.0312
     11 O11         1.8790   -8.1772   -0.6193 O.3       1 <1>        -0.4381
     12 C12         1.8432   -7.4875   -2.8949 C.ar      1 <1>        -0.0333
     13 C13         1.2971   -6.7079   -3.9047 C.ar      1 <1>        -0.0296
     14 O14         1.7939   -6.7873   -5.1671 O.3       1 <1>        -0.4377
     15 C15         0.2429   -5.8533   -3.6293 C.ar      1 <1>        -0.0542
     16 C16        -3.5447   -3.0850   -1.4973 C.ar      1 <1>        -0.0871
     17 C17        -4.5948   -2.2390   -1.2137 C.ar      1 <1>        -0.0674
     18 H18        -6.9964   -1.7189    0.2581 H         1 <1>         0.3538
     19 H19        -4.9332   -2.8647    2.0967 H         1 <1>         0.1259
     20 H20        -3.0665   -4.3863    1.6051 H         1 <1>         0.1290
     21 H21        -1.4392   -5.3831    0.0039 H         1 <1>         0.1299
     22 H22        -1.8123   -4.2536   -2.8164 H         1 <1>         0.1274
     23 H23        -0.1018   -6.4974   -0.3125 H         1 <1>         0.1346
     24 H24         1.4600   -9.0431   -0.5207 H         1 <1>         0.3544
     25 H25         2.6629   -8.1556   -3.1145 H         1 <1>         0.1367
     26 H26         1.3623   -7.4542   -5.7184 H         1 <1>         0.3544
     27 H27        -0.1815   -5.2469   -4.4158 H         1 <1>         0.1372
     28 H28        -3.1562   -3.1465   -2.5031 H         1 <1>         0.1290
     29 H29        -5.0265   -1.6340   -1.9973 H         1 <1>         0.1259
@<TRIPOS>BOND
     1    1    2 1
     2    1   18 1
     3    2   17 ar
     4    2    3 ar
     5    3    4 ar
     6    3   19 1
     7    4    5 ar
     8    4   20 1
     9    5    6 1
    10    5   16 ar
    11    6    7 2
    12    6   21 1
    13    7    8 1
    14    7   22 1
    15    8   15 ar
    16    8    9 ar
    17    9   10 ar
    18    9   23 1
    19   10   11 1
    20   10   12 ar
    21   11   24 1
    22   12   13 ar
    23   12   25 1
    24   13   14 1
    25   13   15 ar
    26   14   26 1
    27   15   27 1
    28   16   17 ar
    29   16   28 1
    30   17   29 1
@<TRIPOS>Similarity
1.1086
@<TRIPOS>ShapeSim
0.6902
@<TRIPOS>PharmSim
0.4184
# END
# Name:		OC1=CC=C(/C=C/C2=CC(O)=CC(O)=C2)C=C1
# Created and modified by SHAFTS on Thu Mar 11 04:22:19 2021

# 

@<TRIPOS>MOLECULE
OC1=CC=C(/C=C/C2=CC(O)=CC(O)=C2)C=C1
   29    30     0
SMALL
USER_CHARGE


@<TRIPOS>ATOM
      1 O1         -6.1234   -1.3150    0.3566 O.3       1 <1>        -0.4408
      2 C2         -5.0917   -2.1548    0.0807 C.ar      1 <1>        -0.0414
      3 C3         -4.5409   -2.9305    1.0927 C.ar      1 <1>        -0.0674
      4 C4         -3.4944   -3.7838    0.8176 C.ar      1 <1>        -0.0871
      5 C5         -2.9872   -3.8678   -0.4823 C.ar      1 <1>        -0.0878
      6 C6         -1.8685   -4.7788   -0.7817 C.2       1 <1>        -0.0876
      7 C7         -1.3830   -4.8579   -2.0309 C.2       1 <1>        -0.0850
      8 C8         -0.2641   -5.7693   -2.3304 C.ar      1 <1>        -0.0762
      9 C9          0.2892   -6.5561   -1.3175 C.ar      1 <1>        -0.0563
     10 C10         1.3400   -7.4111   -1.6040 C.ar      1 <1>        -0.0312
     11 O11         1.8790   -8.1772   -0.6193 O.3       1 <1>        -0.4381
     12 C12         1.8432   -7.4875   -2.8949 C.ar      1 <1>        -0.0333
     13 C13         1.2971   -6.7079   -3.9047 C.ar      1 <1>        -0.0296
     14 O14         1.7939   -6.7873   -5.1671 O.3       1 <1>        -0.4377
     15 C15         0.2429   -5.8533   -3.6293 C.ar      1 <1>        -0.0542
     16 C16        -3.5447   -3.0850   -1.4973 C.ar      1 <1>        -0.0871
     17 C17        -4.5948   -2.2390   -1.2137 C.ar      1 <1>        -0.0674
     18 H18        -6.9964   -1.7189    0.2581 H         1 <1>         0.3538
     19 H19        -4.9332   -2.8647    2.0967 H         1 <1>         0.1259
     20 H20        -3.0665   -4.3863    1.6051 H         1 <1>         0.1290
     21 H21        -1.4392   -5.3831    0.0039 H         1 <1>         0.1299
     22 H22        -1.8123   -4.2536   -2.8164 H         1 <1>         0.1274
     23 H23        -0.1018   -6.4974   -0.3125 H         1 <1>         0.1346
     24 H24         1.4600   -9.0431   -0.5207 H         1 <1>         0.3544
     25 H25         2.6629   -8.1556   -3.1145 H         1 <1>         0.1367
     26 H26         1.3623   -7.4542   -5.7184 H         1 <1>         0.3544
     27 H27        -0.1815   -5.2469   -4.4158 H         1 <1>         0.1372
     28 H28        -3.1562   -3.1465   -2.5031 H         1 <1>         0.1290
     29 H29        -5.0265   -1.6340   -1.9973 H         1 <1>         0.1259
@<TRIPOS>BOND
     1    1    2 1
     2    1   18 1
     3    2   17 ar
     4    2    3 ar
     5    3    4 ar
     6    3   19 1
     7    4    5 ar
     8    4   20 1
     9    5    6 1
    10    5   16 ar
    11    6    7 2
    12    6   21 1
    13    7    8 1
    14    7   22 1
    15    8   15 ar
    16    8    9 ar
    17    9   10 ar
    18    9   23 1
    19   10   11 1
    20   10   12 ar
    21   11   24 1
    22   12   13 ar
    23   12   25 1
    24   13   14 1
    25   13   15 ar
    26   14   26 1
    27   15   27 1
    28   16   17 ar
    29   16   28 1
    30   17   29 1
@<TRIPOS>Similarity
1.1086
@<TRIPOS>ShapeSim
0.6902
@<TRIPOS>PharmSim
0.4184
# END
# Name:		C1=CC(=CC=C1C=CC2=CC(=CC(=C2)O)O)O
# Created and modified by SHAFTS on Thu Mar 11 04:22:19 2021

# 

@<TRIPOS>MOLECULE
C1=CC(=CC=C1C=CC2=CC(=CC(=C2)O)O)O
   29    30     0
SMALL
USER_CHARGE


@<TRIPOS>ATOM
      1 O1         -6.1234   -1.3150    0.3566 O.3       1 <1>        -0.4408
      2 C2         -5.0917   -2.1548    0.0807 C.ar      1 <1>        -0.0414
      3 C3         -4.5409   -2.9305    1.0927 C.ar      1 <1>        -0.0674
      4 C4         -3.4944   -3.7838    0.8176 C.ar      1 <1>        -0.0871
      5 C5         -2.9872   -3.8678   -0.4823 C.ar      1 <1>        -0.0878
      6 C6         -1.8685   -4.7788   -0.7817 C.2       1 <1>        -0.0876
      7 C7         -1.3830   -4.8579   -2.0309 C.2       1 <1>        -0.0850
      8 C8         -0.2641   -5.7693   -2.3304 C.ar      1 <1>        -0.0762
      9 C9          0.2892   -6.5561   -1.3175 C.ar      1 <1>        -0.0563
     10 C10         1.3400   -7.4111   -1.6040 C.ar      1 <1>        -0.0312
     11 O11         1.8790   -8.1772   -0.6193 O.3       1 <1>        -0.4381
     12 C12         1.8432   -7.4875   -2.8949 C.ar      1 <1>        -0.0333
     13 C13         1.2971   -6.7079   -3.9047 C.ar      1 <1>        -0.0296
     14 O14         1.7939   -6.7873   -5.1671 O.3       1 <1>        -0.4377
     15 C15         0.2429   -5.8533   -3.6293 C.ar      1 <1>        -0.0542
     16 C16        -3.5447   -3.0850   -1.4973 C.ar      1 <1>        -0.0871
     17 C17        -4.5948   -2.2390   -1.2137 C.ar      1 <1>        -0.0674
     18 H18        -6.9964   -1.7189    0.2581 H         1 <1>         0.3538
     19 H19        -4.9332   -2.8647    2.0967 H         1 <1>         0.1259
     20 H20        -3.0665   -4.3863    1.6051 H         1 <1>         0.1290
     21 H21        -1.4392   -5.3831    0.0039 H         1 <1>         0.1299
     22 H22        -1.8123   -4.2536   -2.8164 H         1 <1>         0.1274
     23 H23        -0.1018   -6.4974   -0.3125 H         1 <1>         0.1346
     24 H24         1.4600   -9.0431   -0.5207 H         1 <1>         0.3544
     25 H25         2.6629   -8.1556   -3.1145 H         1 <1>         0.1367
     26 H26         1.3623   -7.4542   -5.7184 H         1 <1>         0.3544
     27 H27        -0.1815   -5.2469   -4.4158 H         1 <1>         0.1372
     28 H28        -3.1562   -3.1465   -2.5031 H         1 <1>         0.1290
     29 H29        -5.0265   -1.6340   -1.9973 H         1 <1>         0.1259
@<TRIPOS>BOND
     1    1    2 1
     2    1   18 1
     3    2   17 ar
     4    2    3 ar
     5    3    4 ar
     6    3   19 1
     7    4    5 ar
     8    4   20 1
     9    5    6 1
    10    5   16 ar
    11    6    7 2
    12    6   21 1
    13    7    8 1
    14    7   22 1
    15    8   15 ar
    16    8    9 ar
    17    9   10 ar
    18    9   23 1
    19   10   11 1
    20   10   12 ar
    21   11   24 1
    22   12   13 ar
    23   12   25 1
    24   13   14 1
    25   13   15 ar
    26   14   26 1
    27   15   27 1
    28   16   17 ar
    29   16   28 1
    30   17   29 1
@<TRIPOS>Similarity
1.1086
@<TRIPOS>ShapeSim
0.6902
@<TRIPOS>PharmSim
0.4184
# END
# Name:		C1=CC(=CC=C1C=CC2=CC(=CC(=C2)O)O)O
# Created and modified by SHAFTS on Thu Mar 11 04:22:19 2021

# 

@<TRIPOS>MOLECULE
C1=CC(=CC=C1C=CC2=CC(=CC(=C2)O)O)O
   29    30     0
SMALL
USER_CHARGE


@<TRIPOS>ATOM
      1 O1         -6.1234   -1.3150    0.3566 O.3       1 <1>        -0.4408
      2 C2         -5.0917   -2.1548    0.0807 C.ar      1 <1>        -0.0414
      3 C3         -4.5409   -2.9305    1.0927 C.ar      1 <1>        -0.0674
      4 C4         -3.4944   -3.7838    0.8176 C.ar      1 <1>        -0.0871
      5 C5         -2.9872   -3.8678   -0.4823 C.ar      1 <1>        -0.0878
      6 C6         -1.8685   -4.7788   -0.7817 C.2       1 <1>        -0.0876
      7 C7         -1.3830   -4.8579   -2.0309 C.2       1 <1>        -0.0850
      8 C8         -0.2641   -5.7693   -2.3304 C.ar      1 <1>        -0.0762
      9 C9          0.2892   -6.5561   -1.3175 C.ar      1 <1>        -0.0563
     10 C10         1.3400   -7.4111   -1.6040 C.ar      1 <1>        -0.0312
     11 O11         1.8790   -8.1772   -0.6193 O.3       1 <1>        -0.4381
     12 C12         1.8432   -7.4875   -2.8949 C.ar      1 <1>        -0.0333
     13 C13         1.2971   -6.7079   -3.9047 C.ar      1 <1>        -0.0296
     14 O14         1.7939   -6.7873   -5.1671 O.3       1 <1>        -0.4377
     15 C15         0.2429   -5.8533   -3.6293 C.ar      1 <1>        -0.0542
     16 C16        -3.5447   -3.0850   -1.4973 C.ar      1 <1>        -0.0871
     17 C17        -4.5948   -2.2390   -1.2137 C.ar      1 <1>        -0.0674
     18 H18        -6.9964   -1.7189    0.2581 H         1 <1>         0.3538
     19 H19        -4.9332   -2.8647    2.0967 H         1 <1>         0.1259
     20 H20        -3.0665   -4.3863    1.6051 H         1 <1>         0.1290
     21 H21        -1.4392   -5.3831    0.0039 H         1 <1>         0.1299
     22 H22        -1.8123   -4.2536   -2.8164 H         1 <1>         0.1274
     23 H23        -0.1018   -6.4974   -0.3125 H         1 <1>         0.1346
     24 H24         1.4600   -9.0431   -0.5207 H         1 <1>         0.3544
     25 H25         2.6629   -8.1556   -3.1145 H         1 <1>         0.1367
     26 H26         1.3623   -7.4542   -5.7184 H         1 <1>         0.3544
     27 H27        -0.1815   -5.2469   -4.4158 H         1 <1>         0.1372
     28 H28        -3.1562   -3.1465   -2.5031 H         1 <1>         0.1290
     29 H29        -5.0265   -1.6340   -1.9973 H         1 <1>         0.1259
@<TRIPOS>BOND
     1    1    2 1
     2    1   18 1
     3    2   17 ar
     4    2    3 ar
     5    3    4 ar
     6    3   19 1
     7    4    5 ar
     8    4   20 1
     9    5    6 1
    10    5   16 ar
    11    6    7 2
    12    6   21 1
    13    7    8 1
    14    7   22 1
    15    8   15 ar
    16    8    9 ar
    17    9   10 ar
    18    9   23 1
    19   10   11 1
    20   10   12 ar
    21   11   24 1
    22   12   13 ar
    23   12   25 1
    24   13   14 1
    25   13   15 ar
    26   14   26 1
    27   15   27 1
    28   16   17 ar
    29   16   28 1
    30   17   29 1
@<TRIPOS>Similarity
1.1086
@<TRIPOS>ShapeSim
0.6902
@<TRIPOS>PharmSim
0.4184
# END
# Name:		OC1=CC=C(/C=C/C2=CC(O)=CC(O)=C2)C=C1
# Created and modified by SHAFTS on Thu Mar 11 04:22:19 2021

# 

@<TRIPOS>MOLECULE
OC1=CC=C(/C=C/C2=CC(O)=CC(O)=C2)C=C1
   29    30     0
SMALL
USER_CHARGE


@<TRIPOS>ATOM
      1 O1         -6.1234   -1.3150    0.3566 O.3       1 <1>        -0.4408
      2 C2         -5.0917   -2.1548    0.0807 C.ar      1 <1>        -0.0414
      3 C3         -4.5409   -2.9305    1.0927 C.ar      1 <1>        -0.0674
      4 C4         -3.4944   -3.7838    0.8176 C.ar      1 <1>        -0.0871
      5 C5         -2.9872   -3.8678   -0.4823 C.ar      1 <1>        -0.0878
      6 C6         -1.8685   -4.7788   -0.7817 C.2       1 <1>        -0.0876
      7 C7         -1.3830   -4.8579   -2.0309 C.2       1 <1>        -0.0850
      8 C8         -0.2641   -5.7693   -2.3304 C.ar      1 <1>        -0.0762
      9 C9          0.2892   -6.5561   -1.3175 C.ar      1 <1>        -0.0563
     10 C10         1.3400   -7.4111   -1.6040 C.ar      1 <1>        -0.0312
     11 O11         1.8790   -8.1772   -0.6193 O.3       1 <1>        -0.4381
     12 C12         1.8432   -7.4875   -2.8949 C.ar      1 <1>        -0.0333
     13 C13         1.2971   -6.7079   -3.9047 C.ar      1 <1>        -0.0296
     14 O14         1.7939   -6.7873   -5.1671 O.3       1 <1>        -0.4377
     15 C15         0.2429   -5.8533   -3.6293 C.ar      1 <1>        -0.0542
     16 C16        -3.5447   -3.0850   -1.4973 C.ar      1 <1>        -0.0871
     17 C17        -4.5948   -2.2390   -1.2137 C.ar      1 <1>        -0.0674
     18 H18        -6.9964   -1.7189    0.2581 H         1 <1>         0.3538
     19 H19        -4.9332   -2.8647    2.0967 H         1 <1>         0.1259
     20 H20        -3.0665   -4.3863    1.6051 H         1 <1>         0.1290
     21 H21        -1.4392   -5.3831    0.0039 H         1 <1>         0.1299
     22 H22        -1.8123   -4.2536   -2.8164 H         1 <1>         0.1274
     23 H23        -0.1018   -6.4974   -0.3125 H         1 <1>         0.1346
     24 H24         1.4600   -9.0431   -0.5207 H         1 <1>         0.3544
     25 H25         2.6629   -8.1556   -3.1145 H         1 <1>         0.1367
     26 H26         1.3623   -7.4542   -5.7184 H         1 <1>         0.3544
     27 H27        -0.1815   -5.2469   -4.4158 H         1 <1>         0.1372
     28 H28        -3.1562   -3.1465   -2.5031 H         1 <1>         0.1290
     29 H29        -5.0265   -1.6340   -1.9973 H         1 <1>         0.1259
@<TRIPOS>BOND
     1    1    2 1
     2    1   18 1
     3    2   17 ar
     4    2    3 ar
     5    3    4 ar
     6    3   19 1
     7    4    5 ar
     8    4   20 1
     9    5    6 1
    10    5   16 ar
    11    6    7 2
    12    6   21 1
    13    7    8 1
    14    7   22 1
    15    8   15 ar
    16    8    9 ar
    17    9   10 ar
    18    9   23 1
    19   10   11 1
    20   10   12 ar
    21   11   24 1
    22   12   13 ar
    23   12   25 1
    24   13   14 1
    25   13   15 ar
    26   14   26 1
    27   15   27 1
    28   16   17 ar
    29   16   28 1
    30   17   29 1
@<TRIPOS>Similarity
1.1086
@<TRIPOS>ShapeSim
0.6902
@<TRIPOS>PharmSim
0.4184
# END
# Name:		C1=CC(=CC=C1C=CC2=CC(=CC(=C2)O)O)O
# Created and modified by SHAFTS on Thu Mar 11 04:22:19 2021

# 

@<TRIPOS>MOLECULE
C1=CC(=CC=C1C=CC2=CC(=CC(=C2)O)O)O
   29    30     0
SMALL
USER_CHARGE


@<TRIPOS>ATOM
      1 O1         -6.1234   -1.3150    0.3566 O.3       1 <1>        -0.4408
      2 C2         -5.0917   -2.1548    0.0807 C.ar      1 <1>        -0.0414
      3 C3         -4.5409   -2.9305    1.0927 C.ar      1 <1>        -0.0674
      4 C4         -3.4944   -3.7838    0.8176 C.ar      1 <1>        -0.0871
      5 C5         -2.9872   -3.8678   -0.4823 C.ar      1 <1>        -0.0878
      6 C6         -1.8685   -4.7788   -0.7817 C.2       1 <1>        -0.0876
      7 C7         -1.3830   -4.8579   -2.0309 C.2       1 <1>        -0.0850
      8 C8         -0.2641   -5.7693   -2.3304 C.ar      1 <1>        -0.0762
      9 C9          0.2892   -6.5561   -1.3175 C.ar      1 <1>        -0.0563
     10 C10         1.3400   -7.4111   -1.6040 C.ar      1 <1>        -0.0312
     11 O11         1.8790   -8.1772   -0.6193 O.3       1 <1>        -0.4381
     12 C12         1.8432   -7.4875   -2.8949 C.ar      1 <1>        -0.0333
     13 C13         1.2971   -6.7079   -3.9047 C.ar      1 <1>        -0.0296
     14 O14         1.7939   -6.7873   -5.1671 O.3       1 <1>        -0.4377
     15 C15         0.2429   -5.8533   -3.6293 C.ar      1 <1>        -0.0542
     16 C16        -3.5447   -3.0850   -1.4973 C.ar      1 <1>        -0.0871
     17 C17        -4.5948   -2.2390   -1.2137 C.ar      1 <1>        -0.0674
     18 H18        -6.9964   -1.7189    0.2581 H         1 <1>         0.3538
     19 H19        -4.9332   -2.8647    2.0967 H         1 <1>         0.1259
     20 H20        -3.0665   -4.3863    1.6051 H         1 <1>         0.1290
     21 H21        -1.4392   -5.3831    0.0039 H         1 <1>         0.1299
     22 H22        -1.8123   -4.2536   -2.8164 H         1 <1>         0.1274
     23 H23        -0.1018   -6.4974   -0.3125 H         1 <1>         0.1346
     24 H24         1.4600   -9.0431   -0.5207 H         1 <1>         0.3544
     25 H25         2.6629   -8.1556   -3.1145 H         1 <1>         0.1367
     26 H26         1.3623   -7.4542   -5.7184 H         1 <1>         0.3544
     27 H27        -0.1815   -5.2469   -4.4158 H         1 <1>         0.1372
     28 H28        -3.1562   -3.1465   -2.5031 H         1 <1>         0.1290
     29 H29        -5.0265   -1.6340   -1.9973 H         1 <1>         0.1259
@<TRIPOS>BOND
     1    1    2 1
     2    1   18 1
     3    2   17 ar
     4    2    3 ar
     5    3    4 ar
     6    3   19 1
     7    4    5 ar
     8    4   20 1
     9    5    6 1
    10    5   16 ar
    11    6    7 2
    12    6   21 1
    13    7    8 1
    14    7   22 1
    15    8   15 ar
    16    8    9 ar
    17    9   10 ar
    18    9   23 1
    19   10   11 1
    20   10   12 ar
    21   11   24 1
    22   12   13 ar
    23   12   25 1
    24   13   14 1
    25   13   15 ar
    26   14   26 1
    27   15   27 1
    28   16   17 ar
    29   16   28 1
    30   17   29 1
@<TRIPOS>Similarity
1.1086
@<TRIPOS>ShapeSim
0.6902
@<TRIPOS>PharmSim
0.4184
# END
# Name:		C1=C(C=C(C(=C1O)O)O)C(=O)O
# Created and modified by SHAFTS on Thu Mar 11 04:22:19 2021

# 

@<TRIPOS>MOLECULE
C1=C(C=C(C(=C1O)O)O)C(=O)O
   17    17     0
SMALL
USER_CHARGE


@<TRIPOS>ATOM
      1 O1          0.5065   -7.6878    0.4757 O.co2     1 <1>        -0.5000
      2 C2          1.2257   -7.7999   -0.5077 C.2       1 <1>         0.5200
      3 O3          2.2992   -8.3795   -0.4175 O.co2     1 <1>        -0.5000
      4 C4          0.7963   -7.2423   -1.8011 C.ar      1 <1>        -0.1100
      5 C5          1.6148   -7.3745   -2.9277 C.ar      1 <1>        -0.1000
      6 C6          1.2092   -6.8503   -4.1398 C.ar      1 <1>         0.0700
      7 O7          2.0043   -6.9789   -5.2357 O.3       1 <1>        -0.4900
      8 C8         -0.0133   -6.1906   -4.2408 C.ar      1 <1>         0.0400
      9 O9         -0.4095   -5.6761   -5.4341 O.3       1 <1>        -0.4800
     10 C10        -0.8309   -6.0576   -3.1209 C.ar      1 <1>         0.0700
     11 O11        -2.0242   -5.4132   -3.2237 O.3       1 <1>        -0.4900
     12 C12        -0.4334   -6.5842   -1.9072 C.ar      1 <1>        -0.1000
     13 H13         2.5630   -7.8857   -2.8498 H         1 <1>         0.1400
     14 H14         1.8378   -7.7803   -5.7506 H         1 <1>         0.3800
     15 H15        -0.9202   -6.2916   -5.9776 H         1 <1>         0.3700
     16 H16        -2.7651   -5.9913   -3.4516 H         1 <1>         0.3800
     17 H17        -1.0678   -6.4809   -1.0393 H         1 <1>         0.1400
@<TRIPOS>BOND
     1    1    2 ar
     2    2    3 ar
     3    2    4 1
     4    4   12 ar
     5    4    5 ar
     6    5    6 ar
     7    5   13 1
     8    6    7 1
     9    6    8 ar
    10    7   14 1
    11    8    9 1
    12    8   10 ar
    13    9   15 1
    14   10   11 1
    15   10   12 ar
    16   11   16 1
    17   12   17 1
@<TRIPOS>Similarity
1.0985
@<TRIPOS>ShapeSim
0.5951
@<TRIPOS>PharmSim
0.5035
# END
# Name:		COC1=CC=C(C=C1)C2CC(=O)C3=C(C=C(C=C3O2)O)O
# Created and modified by SHAFTS on Thu Mar 11 04:22:19 2021

# 

@<TRIPOS>MOLECULE
COC1=CC=C(C=C1)C2CC(=O)C3=C(C=C(C=C3O2)O)O
   35    37     0
SMALL
USER_CHARGE


@<TRIPOS>ATOM
      1 C1         -6.3118   -0.4626    1.0638 C.3       1 <1>         0.0240
      2 O2         -6.4021   -1.6819    0.3241 O.3       1 <1>        -0.4181
      3 C3         -5.2428   -2.3547    0.0997 C.ar      1 <1>        -0.0148
      4 C4         -4.0438   -1.8545    0.5864 C.ar      1 <1>        -0.0701
      5 C5         -2.8668   -2.5403    0.3573 C.ar      1 <1>        -0.0920
      6 C6         -2.8829   -3.7242   -0.3567 C.ar      1 <1>        -0.0675
      7 C7         -1.5974   -4.4702   -0.6056 C.3       1 <1>         0.0606
      8 H8         -0.7533   -3.7920   -0.4806 H         1 <1>         0.1391
      9 C9         -1.4757   -5.6295    0.3942 C.3       1 <1>         0.0683
     10 C10        -0.1855   -6.3634    0.0762 C.2       1 <1>         0.0862
     11 O11         0.5443   -6.7796    0.9523 O.2       1 <1>        -0.4549
     12 C12         0.1343   -6.5437   -1.3441 C.ar      1 <1>         0.0588
     13 C13         1.1568   -7.4187   -1.7426 C.ar      1 <1>        -0.0008
     14 O14         1.8558   -8.1198   -0.8157 O.3       1 <1>        -0.4187
     15 C15         1.4461   -7.5610   -3.0882 C.ar      1 <1>        -0.0189
     16 C16         0.7262   -6.8426   -4.0346 C.ar      1 <1>        -0.0128
     17 O17         1.0190   -6.9859   -5.3515 O.3       1 <1>        -0.4242
     18 C18        -0.2908   -5.9794   -3.6464 C.ar      1 <1>        -0.0094
     19 C19        -0.5983   -5.8240   -2.3065 C.ar      1 <1>         0.0329
     20 O20        -1.5980   -4.9901   -1.9350 O.3       1 <1>        -0.3868
     21 C21        -4.0766   -4.2251   -0.8425 C.ar      1 <1>        -0.0786
     22 C22        -5.2570   -3.5457   -0.6115 C.ar      1 <1>        -0.0538
     23 H23        -5.6653    0.2369    0.5338 H         1 <1>         0.0922
     24 H24        -7.3059   -0.0284    1.1713 H         1 <1>         0.1211
     25 H25        -5.8956   -0.6660    2.0504 H         1 <1>         0.0922
     26 H26        -4.0306   -0.9294    1.1436 H         1 <1>         0.1111
     27 H27        -1.9331   -2.1513    0.7360 H         1 <1>         0.1318
     28 H28        -1.4401   -5.2399    1.4116 H         1 <1>         0.1027
     29 H29        -2.3239   -6.3050    0.2841 H         1 <1>         0.1099
     30 H30         1.4726   -8.9819   -0.6035 H         1 <1>         0.3710
     31 H31         2.2325   -8.2310   -3.4030 H         1 <1>         0.1388
     32 H32         0.5204   -7.6882   -5.7912 H         1 <1>         0.3676
     33 H33        -0.8430   -5.4279   -4.3929 H         1 <1>         0.1440
     34 H34        -4.0867   -5.1502   -1.3996 H         1 <1>         0.1446
     35 H35        -6.1892   -3.9374   -0.9912 H         1 <1>         0.1343
@<TRIPOS>BOND
     1    1    2 1
     2    1   23 1
     3    1   24 1
     4    1   25 1
     5    2    3 1
     6    3   22 ar
     7    3    4 ar
     8    4    5 ar
     9    4   26 1
    10    5    6 ar
    11    5   27 1
    12    6    7 1
    13    6   21 ar
    14    7    8 1
    15    7   20 1
    16    7    9 1
    17    9   10 1
    18    9   28 1
    19    9   29 1
    20   10   11 2
    21   10   12 1
    22   12   19 ar
    23   12   13 ar
    24   13   14 1
    25   13   15 ar
    26   14   30 1
    27   15   16 ar
    28   15   31 1
    29   16   17 1
    30   16   18 ar
    31   17   32 1
    32   18   19 ar
    33   18   33 1
    34   19   20 1
    35   21   22 ar
    36   21   34 1
    37   22   35 1
@<TRIPOS>Similarity
1.0937
@<TRIPOS>ShapeSim
0.7837
@<TRIPOS>PharmSim
0.3100
# END
# Name:		COC1=CC(N=CN=C2NC3=CC(Br)=CC=C3)=C2C=C1OC
# Created and modified by SHAFTS on Thu Mar 11 04:22:19 2021

# 

@<TRIPOS>MOLECULE
COC1=CC(N=CN=C2NC3=CC(Br)=CC=C3)=C2C=C1OC
   36    38     0
SMALL
USER_CHARGE


@<TRIPOS>ATOM
      1 C1          2.6356   -8.8986   -4.6353 C.3       1 <1>         0.0301
      2 O2          2.3966   -8.6673   -3.2455 O.3       1 <1>        -0.3969
      3 C3          1.4232   -7.7748   -2.9273 C.ar      1 <1>         0.0583
      4 C4          1.1464   -7.5015   -1.5805 C.ar      1 <1>         0.0475
      5 O5          1.8553   -8.1328   -0.6069 O.3       1 <1>        -0.4039
      6 C6          1.5267   -7.8121    0.7463 C.3       1 <1>         0.0280
      7 C7          0.1727   -6.6077   -1.2354 C.ar      1 <1>        -0.0310
      8 C8         -0.5574   -5.9569   -2.2369 C.ar      1 <1>         0.0201
      9 C9         -0.2834   -6.2280   -3.6004 C.ar      1 <1>        -0.0115
     10 C10         0.7226   -7.1439   -3.9314 C.ar      1 <1>        -0.0009
     11 N11        -0.9976   -5.5901   -4.5410 N.ar      1 <1>        -0.3719
     12 C12        -1.9305   -4.7331   -4.2004 C.ar      1 <1>         0.0297
     13 N13        -2.2211   -4.4485   -2.9409 N.ar      1 <1>        -0.3437
     14 C14        -1.5759   -5.0222   -1.9337 C.ar      1 <1>         0.0250
     15 N15        -1.8900   -4.7160   -0.6246 N.pl3     1 <1>        -0.3205
     16 C16        -2.9773   -3.8840   -0.3430 C.ar      1 <1>        -0.0390
     17 C17        -2.9206   -3.0040    0.7301 C.ar      1 <1>        -0.0624
     18 C18        -3.9964   -2.1829    1.0061 C.ar      1 <1>        -0.0870
     19 C19        -5.1295   -2.2360    0.2156 C.ar      1 <1>        -0.0818
     20 C20        -5.1899   -3.1119   -0.8543 C.ar      1 <1>        -0.0286
     21 Br21       -6.7419   -3.1806   -1.9324 Br        1 <1>        -0.1031
     22 C22        -4.1146   -3.9313   -1.1393 C.ar      1 <1>        -0.0374
     23 H23         1.7266   -9.2778   -5.1021 H         1 <1>         0.0916
     24 H24         2.9273   -7.9640   -5.1143 H         1 <1>         0.0916
     25 H25         3.4353   -9.6305   -4.7495 H         1 <1>         0.1278
     26 H26         1.6819   -6.7466    0.9152 H         1 <1>         0.0914
     27 H27         0.4827   -8.0617    0.9357 H         1 <1>         0.0914
     28 H28         2.1649   -8.3836    1.4204 H         1 <1>         0.1276
     29 H29        -0.0331   -6.4044   -0.1948 H         1 <1>         0.1318
     30 H30         0.9422   -7.3601   -4.9665 H         1 <1>         0.1553
     31 H31        -2.4859   -4.2372   -4.9826 H         1 <1>         0.2970
     32 H32        -1.3562   -5.0784    0.0997 H         1 <1>         0.3337
     33 H33        -2.0361   -2.9621    1.3484 H         1 <1>         0.1302
     34 H34        -3.9527   -1.4988    1.8407 H         1 <1>         0.1355
     35 H35        -5.9692   -1.5929    0.4337 H         1 <1>         0.1261
     36 H36        -4.1618   -4.6146   -1.9744 H         1 <1>         0.1597
@<TRIPOS>BOND
     1    1    2 1
     2    1   23 1
     3    1   24 1
     4    1   25 1
     5    2    3 1
     6    3   10 ar
     7    3    4 ar
     8    4    5 1
     9    4    7 ar
    10    5    6 1
    11    6   26 1
    12    6   27 1
    13    6   28 1
    14    7    8 ar
    15    7   29 1
    16    8   14 ar
    17    8    9 ar
    18    9   10 ar
    19    9   11 ar
    20   10   30 1
    21   11   12 ar
    22   12   13 ar
    23   12   31 1
    24   13   14 ar
    25   14   15 1
    26   15   16 1
    27   15   32 1
    28   16   22 ar
    29   16   17 ar
    30   17   18 ar
    31   17   33 1
    32   18   19 ar
    33   18   34 1
    34   19   20 ar
    35   19   35 1
    36   20   21 1
    37   20   22 ar
    38   22   36 1
@<TRIPOS>Similarity
1.0906
@<TRIPOS>ShapeSim
0.7004
@<TRIPOS>PharmSim
0.3902
# END
# Name:		COC1=CC2=C(C(=C1)OC)C(=O)C=C(O2)C3=CC=CC=C3
# Created and modified by SHAFTS on Thu Mar 11 04:22:19 2021

# 

@<TRIPOS>MOLECULE
COC1=CC2=C(C(=C1)OC)C(=O)C=C(O2)C3=CC=CC=C3
   35    37     0
SMALL
USER_CHARGE


@<TRIPOS>ATOM
      1 C1          2.6877   -7.7984   -5.2280 C.3       1 <1>         0.0309
      2 O2          1.7102   -6.7923   -4.9551 O.3       1 <1>        -0.4041
      3 C3          1.0971   -6.8408   -3.7450 C.ar      1 <1>         0.0073
      4 C4          1.4398   -7.8385   -2.8391 C.ar      1 <1>        -0.0213
      5 C5          0.8220   -7.8970   -1.6033 C.ar      1 <1>         0.0275
      6 O6          1.1553   -8.8697   -0.7177 O.3       1 <1>        -0.3939
      7 C7          2.1556   -9.8045   -1.1269 C.3       1 <1>         0.0358
      8 C8         -0.1501   -6.9446   -1.2726 C.ar      1 <1>         0.0798
      9 C9         -0.8325   -6.9692    0.0319 C.2       1 <1>         0.0905
     10 O10        -0.5732   -7.8202    0.8672 O.2       1 <1>        -0.4673
     11 C11        -1.8013   -5.9659    0.2792 C.2       1 <1>         0.0243
     12 C12        -2.0613   -5.0356   -0.6764 C.2       1 <1>         0.0556
     13 C13        -3.0748   -3.9977   -0.3996 C.ar      1 <1>        -0.0253
     14 C14        -3.7429   -3.9791    0.8266 C.ar      1 <1>        -0.0751
     15 C15        -4.6885   -3.0068    1.0785 C.ar      1 <1>        -0.0944
     16 C16        -4.9755   -2.0515    0.1194 C.ar      1 <1>        -0.0984
     17 C17        -4.3175   -2.0641   -1.0977 C.ar      1 <1>        -0.0944
     18 C18        -3.3654   -3.0271   -1.3606 C.ar      1 <1>        -0.0751
     19 O19        -1.4322   -5.0231   -1.8620 O.3       1 <1>        -0.3252
     20 C20        -0.4946   -5.9370   -2.1905 C.ar      1 <1>         0.0647
     21 C21         0.1394   -5.8916   -3.4221 C.ar      1 <1>         0.0018
     22 H22         3.4886   -7.7361   -4.4912 H         1 <1>         0.0918
     23 H23         2.2212   -8.7821   -5.1752 H         1 <1>         0.0918
     24 H24         3.0990   -7.6443   -6.2256 H         1 <1>         0.1280
     25 H25         2.1901   -8.5697   -3.1015 H         1 <1>         0.1154
     26 H26         2.3268  -10.5263   -0.3282 H         1 <1>         0.1293
     27 H27         1.8201  -10.3267   -2.0228 H         1 <1>         0.0931
     28 H28         3.0830   -9.2736   -1.3415 H         1 <1>         0.0931
     29 H29        -2.3299   -5.9409    1.2207 H         1 <1>         0.1388
     30 H30        -3.5201   -4.7243    1.5759 H         1 <1>         0.1405
     31 H31        -5.2062   -2.9914    2.0261 H         1 <1>         0.1224
     32 H32        -5.7171   -1.2928    0.3217 H         1 <1>         0.1271
     33 H33        -4.5463   -1.3154   -1.8417 H         1 <1>         0.1224
     34 H34        -2.8525   -3.0357   -2.3110 H         1 <1>         0.1405
     35 H35        -0.1152   -5.1187   -4.1321 H         1 <1>         0.1419
@<TRIPOS>BOND
     1    1    2 1
     2    1   22 1
     3    1   23 1
     4    1   24 1
     5    2    3 1
     6    3   21 ar
     7    3    4 ar
     8    4    5 ar
     9    4   25 1
    10    5    6 1
    11    5    8 ar
    12    6    7 1
    13    7   26 1
    14    7   27 1
    15    7   28 1
    16    8   20 ar
    17    8    9 1
    18    9   10 2
    19    9   11 1
    20   11   12 2
    21   11   29 1
    22   12   13 1
    23   12   19 1
    24   13   18 ar
    25   13   14 ar
    26   14   15 ar
    27   14   30 1
    28   15   16 ar
    29   15   31 1
    30   16   17 ar
    31   16   32 1
    32   17   18 ar
    33   17   33 1
    34   18   34 1
    35   19   20 1
    36   20   21 ar
    37   21   35 1
@<TRIPOS>Similarity
1.0877
@<TRIPOS>ShapeSim
0.7536
@<TRIPOS>PharmSim
0.3341
# END
# Name:		OC1=CC=C(SC2=CC=C(O)C=C2)C=C1
# Created and modified by SHAFTS on Thu Mar 11 04:22:19 2021

# 

@<TRIPOS>MOLECULE
OC1=CC=C(SC2=CC=C(O)C=C2)C=C1
   25    26     0
SMALL
USER_CHARGE


@<TRIPOS>ATOM
      1 O1         -1.3992   -0.4816    0.0174 O.3       1 <1>        -0.4416
      2 C2         -1.2899   -1.8346   -0.0650 C.ar      1 <1>        -0.0412
      3 C3         -0.5266   -2.4083   -1.0714 C.ar      1 <1>        -0.0702
      4 C4         -0.4155   -3.7820   -1.1563 C.ar      1 <1>        -0.0873
      5 C5         -1.0681   -4.5897   -0.2333 C.ar      1 <1>        -0.0526
      6 S6         -0.9266   -6.3427   -0.3403 S.3       1 <1>        -0.1575
      7 C7         -0.0239   -6.5771   -1.8352 C.ar      1 <1>        -0.0500
      8 C8          1.3564   -6.7296   -1.7972 C.ar      1 <1>        -0.0809
      9 C9          2.0627   -6.9137   -2.9693 C.ar      1 <1>        -0.0612
     10 C10         1.3945   -6.9464   -4.1845 C.ar      1 <1>        -0.0348
     11 O11         2.0911   -7.1278   -5.3383 O.3       1 <1>        -0.4355
     12 C12         0.0161   -6.7947   -4.2237 C.ar      1 <1>        -0.0591
     13 C13        -0.6928   -6.6153   -3.0523 C.ar      1 <1>        -0.0793
     14 C14        -1.8319   -4.0141    0.7743 C.ar      1 <1>        -0.0808
     15 C15        -1.9374   -2.6400    0.8605 C.ar      1 <1>        -0.0638
     16 H16        -0.7178   -0.0646    0.5624 H         1 <1>         0.3535
     17 H17        -0.0195   -1.7803   -1.7888 H         1 <1>         0.1271
     18 H18         0.1783   -4.2284   -1.9402 H         1 <1>         0.1234
     19 H19         1.8769   -6.7038   -0.8512 H         1 <1>         0.1432
     20 H20         3.1358   -7.0319   -2.9400 H         1 <1>         0.1313
     21 H21         2.1938   -8.0547   -5.5942 H         1 <1>         0.3630
     22 H22        -0.5032   -6.8207   -5.1702 H         1 <1>         0.1338
     23 H23        -1.7659   -6.4972   -3.0830 H         1 <1>         0.1436
     24 H24        -2.3396   -4.6409    1.4924 H         1 <1>         0.1310
     25 H25        -2.5311   -2.1923    1.6438 H         1 <1>         0.1360
@<TRIPOS>BOND
     1    1    2 1
     2    1   16 1
     3    2   15 ar
     4    2    3 ar
     5    3    4 ar
     6    3   17 1
     7    4    5 ar
     8    4   18 1
     9    5    6 1
    10    5   14 ar
    11    6    7 1
    12    7   13 ar
    13    7    8 ar
    14    8    9 ar
    15    8   19 1
    16    9   10 ar
    17    9   20 1
    18   10   11 1
    19   10   12 ar
    20   11   21 1
    21   12   13 ar
    22   12   22 1
    23   13   23 1
    24   14   15 ar
    25   14   24 1
    26   15   25 1
@<TRIPOS>Similarity
1.0869
@<TRIPOS>ShapeSim
0.6530
@<TRIPOS>PharmSim
0.4339
# END
# Name:		CC(=CCC(C1=CC(=O)C2=C(C=CC(=C2C1=O)O)O)O)C
# Created and modified by SHAFTS on Thu Mar 11 04:22:19 2021

# 

@<TRIPOS>MOLECULE
CC(=CCC(C1=CC(=O)C2=C(C=CC(=C2C1=O)O)O)O)C
   37    38     0
SMALL
USER_CHARGE


@<TRIPOS>ATOM
      1 C1         -5.8695   -2.9081   -2.5102 C.3       1 <1>        -0.0568
      2 C2         -5.7616   -2.3760   -1.1044 C.2       1 <1>        -0.1553
      3 C3         -6.6090   -1.2062   -0.6744 C.3       1 <1>        -0.0568
      4 C4         -4.9313   -2.9303   -0.2561 C.2       1 <1>        -0.1378
      5 C5         -3.9961   -4.0177   -0.7185 C.3       1 <1>        -0.0256
      6 C6         -2.5570   -3.6372   -0.3646 C.3       1 <1>         0.0190
      7 H7         -2.4881   -3.4296    0.7032 H         1 <1>         0.1526
      8 O8         -2.1772   -2.4732   -1.1015 O.3       1 <1>        -0.4721
      9 C9         -1.6354   -4.7767   -0.7154 C.2       1 <1>         0.0308
     10 C10        -0.9783   -5.4264    0.2581 C.2       1 <1>         0.0247
     11 C11        -0.0718   -6.5449   -0.0686 C.2       1 <1>         0.1223
     12 O12         0.3295   -7.2874    0.8066 O.2       1 <1>        -0.4289
     13 C13         0.3403   -6.7510   -1.4685 C.ar      1 <1>         0.0624
     14 C14         1.3945   -7.6021   -1.7964 C.ar      1 <1>         0.0024
     15 O15         2.0659   -8.2619   -0.8215 O.3       1 <1>        -0.4207
     16 C16         1.7553   -7.7718   -3.1371 C.ar      1 <1>        -0.0393
     17 C17         1.0863   -7.1129   -4.1266 C.ar      1 <1>        -0.0393
     18 C18         0.0255   -6.2538   -3.8214 C.ar      1 <1>         0.0028
     19 O19        -0.6325   -5.6049   -4.8125 O.3       1 <1>        -0.4207
     20 C20        -0.3511   -6.0686   -2.4919 C.ar      1 <1>         0.0636
     21 C21        -1.4661   -5.1748   -2.1269 C.2       1 <1>         0.1262
     22 O22        -2.2330   -4.7685   -2.9785 O.2       1 <1>        -0.4274
     23 H23        -6.6678   -2.3848   -3.0365 H         1 <1>         0.0450
     24 H24        -4.9257   -2.7500   -3.0319 H         1 <1>         0.0521
     25 H25        -6.0931   -3.9745   -2.4789 H         1 <1>         0.0450
     26 H26        -7.5529   -1.5708   -0.2692 H         1 <1>         0.0521
     27 H27        -6.0809   -0.6369    0.0906 H         1 <1>         0.0450
     28 H28        -6.8058   -0.5650   -1.5335 H         1 <1>         0.0450
     29 H29        -4.9172   -2.6079    0.7746 H         1 <1>         0.0895
     30 H30        -4.2559   -4.9544   -0.2254 H         1 <1>         0.0658
     31 H31        -4.0849   -4.1386   -1.7981 H         1 <1>         0.0730
     32 H32        -2.2148   -2.5856   -2.0612 H         1 <1>         0.3321
     33 H33        -1.1133   -5.1286    1.2875 H         1 <1>         0.1674
     34 H34         1.6948   -9.1285   -0.6057 H         1 <1>         0.3696
     35 H35         2.5722   -8.4309   -3.3914 H         1 <1>         0.1513
     36 H36         1.3784   -7.2564   -5.1565 H         1 <1>         0.1513
     37 H37        -1.3894   -6.0917   -5.1664 H         1 <1>         0.3696
@<TRIPOS>BOND
     1    1    2 1
     2    1   23 1
     3    1   24 1
     4    1   25 1
     5    2    3 1
     6    2    4 2
     7    3   26 1
     8    3   27 1
     9    3   28 1
    10    4    5 1
    11    4   29 1
    12    5    6 1
    13    5   30 1
    14    5   31 1
    15    6    7 1
    16    6    8 1
    17    6    9 1
    18    8   32 1
    19    9   21 1
    20    9   10 2
    21   10   11 1
    22   10   33 1
    23   11   12 2
    24   11   13 1
    25   13   20 ar
    26   13   14 ar
    27   14   15 1
    28   14   16 ar
    29   15   34 1
    30   16   17 ar
    31   16   35 1
    32   17   18 ar
    33   17   36 1
    34   18   19 1
    35   18   20 ar
    36   19   37 1
    37   20   21 1
    38   21   22 2
@<TRIPOS>Similarity
1.0841
@<TRIPOS>ShapeSim
0.7216
@<TRIPOS>PharmSim
0.3625
# END
# Name:		COC1=C(C=C(C=C1)C2=CC(=O)C3=C(C=C(C=C3O2)O)O)O
# Created and modified by SHAFTS on Thu Mar 11 04:22:19 2021

# 

@<TRIPOS>MOLECULE
COC1=C(C=C(C=C1)C2=CC(=O)C3=C(C=C(C=C3O2)O)O)O
   34    36     0
SMALL
USER_CHARGE


@<TRIPOS>ATOM
      1 C1         -6.5733   -1.2381    1.5499 C.3       1 <1>         0.0283
      2 O2         -6.0763   -1.3115    0.2120 O.3       1 <1>        -0.4059
      3 C3         -5.0454   -2.1661   -0.0170 C.ar      1 <1>         0.0280
      4 C4         -4.5282   -2.9219    1.0255 C.ar      1 <1>        -0.0510
      5 C5         -3.4818   -3.7902    0.7987 C.ar      1 <1>        -0.0709
      6 C6         -2.9400   -3.9111   -0.4834 C.ar      1 <1>        -0.0160
      7 C7         -1.8206   -4.8400   -0.7283 C.2       1 <1>         0.0518
      8 C8         -1.3382   -5.5717    0.3120 C.2       1 <1>         0.0198
      9 C9         -0.2647   -6.4679    0.0961 C.2       1 <1>         0.0849
     10 O10         0.1927   -7.1403    1.0062 O.2       1 <1>        -0.4694
     11 C11         0.2785   -6.5583   -1.2698 C.ar      1 <1>         0.0669
     12 C12         1.3401   -7.4189   -1.5745 C.ar      1 <1>         0.0075
     13 O13         1.8924   -8.1929   -0.6061 O.3       1 <1>        -0.4132
     14 C14         1.8213   -7.4748   -2.8698 C.ar      1 <1>        -0.0139
     15 C15         1.2537   -6.6814   -3.8606 C.ar      1 <1>        -0.0096
     16 O16         1.7333   -6.7442   -5.1290 O.3       1 <1>        -0.4243
     17 C17         0.2022   -5.8269   -3.5657 C.ar      1 <1>        -0.0050
     18 C18        -0.2935   -5.7571   -2.2734 C.ar      1 <1>         0.0592
     19 O19        -1.3205   -4.9349   -1.9706 O.3       1 <1>        -0.3304
     20 C20        -3.4614   -3.1499   -1.5337 C.ar      1 <1>        -0.0304
     21 C21        -4.5134   -2.2859   -1.3002 C.ar      1 <1>         0.0165
     22 O22        -5.0234   -1.5443   -2.3197 O.3       1 <1>        -0.4257
     23 H23        -6.9325   -2.2199    1.8584 H         1 <1>         0.0915
     24 H24        -5.7734   -0.9177    2.2175 H         1 <1>         0.0915
     25 H25        -7.3928   -0.5208    1.5942 H         1 <1>         0.1277
     26 H26        -4.9462   -2.8293    2.0171 H         1 <1>         0.1302
     27 H27        -3.0806   -4.3767    1.6120 H         1 <1>         0.1469
     28 H28        -1.7712   -5.4689    1.2961 H         1 <1>         0.1341
     29 H29         1.4769   -9.0610   -0.5119 H         1 <1>         0.3739
     30 H30         2.6400   -8.1360   -3.1124 H         1 <1>         0.1436
     31 H31         1.2966   -7.4062   -5.6823 H         1 <1>         0.3674
     32 H32        -0.2304   -5.2151   -4.3434 H         1 <1>         0.1477
     33 H33        -3.0454   -3.2405   -2.5262 H         1 <1>         0.1591
     34 H34        -5.7433   -1.9769   -2.7989 H         1 <1>         0.3592
@<TRIPOS>BOND
     1    1    2 1
     2    1   23 1
     3    1   24 1
     4    1   25 1
     5    2    3 1
     6    3   21 ar
     7    3    4 ar
     8    4    5 ar
     9    4   26 1
    10    5    6 ar
    11    5   27 1
    12    6    7 1
    13    6   20 ar
    14    7   19 1
    15    7    8 2
    16    8    9 1
    17    8   28 1
    18    9   10 2
    19    9   11 1
    20   11   18 ar
    21   11   12 ar
    22   12   13 1
    23   12   14 ar
    24   13   29 1
    25   14   15 ar
    26   14   30 1
    27   15   16 1
    28   15   17 ar
    29   16   31 1
    30   17   18 ar
    31   17   32 1
    32   18   19 1
    33   20   21 ar
    34   20   33 1
    35   21   22 1
    36   22   34 1
@<TRIPOS>Similarity
1.0820
@<TRIPOS>ShapeSim
0.7252
@<TRIPOS>PharmSim
0.3568
# END
# Name:		C1=CC=C2C(=C1)C(=O)C=C(O2)C3=CC(=C(C=C3)O)O
# Created and modified by SHAFTS on Thu Mar 11 04:22:19 2021

# 

@<TRIPOS>MOLECULE
C1=CC=C2C(=C1)C(=O)C=C(O2)C3=CC(=C(C=C3)O)O
   29    31     0
SMALL
USER_CHARGE


@<TRIPOS>ATOM
      1 O1         -2.2470   -5.3883    2.5422 O.2       1 <1>        -0.4740
      2 C2         -2.3562   -5.1392    1.3529 C.2       1 <1>         0.0801
      3 C3         -1.4687   -5.6917    0.4021 C.2       1 <1>         0.0219
      4 C4         -1.6245   -5.3893   -0.9165 C.2       1 <1>         0.0531
      5 C5         -0.6887   -5.9760   -1.8938 C.ar      1 <1>        -0.0150
      6 C6          0.3306   -6.8290   -1.4627 C.ar      1 <1>        -0.0627
      7 C7          1.2043   -7.3763   -2.3776 C.ar      1 <1>        -0.0472
      8 C8          1.0744   -7.0823   -3.7277 C.ar      1 <1>         0.0055
      9 O9          1.9381   -7.6243   -4.6253 O.3       1 <1>        -0.4232
     10 C10         0.0594   -6.2323   -4.1652 C.ar      1 <1>         0.0088
     11 O11        -0.0653   -5.9472   -5.4890 O.3       1 <1>        -0.4256
     12 C12        -0.8229   -5.6845   -3.2548 C.ar      1 <1>        -0.0311
     13 O13        -2.5970   -4.5784   -1.3608 O.3       1 <1>        -0.3345
     14 C14        -3.4922   -4.0034   -0.5307 C.ar      1 <1>         0.0458
     15 C15        -4.4872   -3.1689   -1.0238 C.ar      1 <1>        -0.0444
     16 C16        -5.3924   -2.5915   -0.1583 C.ar      1 <1>        -0.0858
     17 C17        -5.3216   -2.8345    1.2053 C.ar      1 <1>        -0.0905
     18 C18        -4.3418   -3.6595    1.7143 C.ar      1 <1>        -0.0717
     19 C19        -3.4249   -4.2532    0.8492 C.ar      1 <1>         0.0313
     20 H20        -0.6723   -6.3488    0.7190 H         1 <1>         0.1363
     21 H21         0.4340   -7.0592   -0.4126 H         1 <1>         0.1510
     22 H22         1.9918   -8.0352   -2.0431 H         1 <1>         0.1455
     23 H23         1.6499   -8.4747   -4.9844 H         1 <1>         0.3603
     24 H24        -0.6396   -6.5582   -5.9706 H         1 <1>         0.3594
     25 H25        -1.6095   -5.0260   -3.5921 H         1 <1>         0.1555
     26 H26        -4.5517   -2.9723   -2.0838 H         1 <1>         0.1374
     27 H27        -6.1641   -1.9432   -0.5462 H         1 <1>         0.1412
     28 H28        -6.0371   -2.3751    1.8711 H         1 <1>         0.1253
     29 H29        -4.2874   -3.8477    2.7764 H         1 <1>         0.1473
@<TRIPOS>BOND
     1    1    2 2
     2    2   19 1
     3    2    3 1
     4    3    4 2
     5    3   20 1
     6    4    5 1
     7    4   13 1
     8    5   12 ar
     9    5    6 ar
    10    6    7 ar
    11    6   21 1
    12    7    8 ar
    13    7   22 1
    14    8    9 1
    15    8   10 ar
    16    9   23 1
    17   10   11 1
    18   10   12 ar
    19   11   24 1
    20   12   25 1
    21   13   14 1
    22   14   19 ar
    23   14   15 ar
    24   15   16 ar
    25   15   26 1
    26   16   17 ar
    27   16   27 1
    28   17   18 ar
    29   17   28 1
    30   18   19 ar
    31   18   29 1
@<TRIPOS>Similarity
1.0810
@<TRIPOS>ShapeSim
0.6719
@<TRIPOS>PharmSim
0.4091
# END
# Name:		C1=CC(=C(C=C1C=CC(=O)O)O)O
# Created and modified by SHAFTS on Thu Mar 11 04:22:19 2021

# 

@<TRIPOS>MOLECULE
C1=CC(=C(C=C1C=CC(=O)O)O)O
   20    20     0
SMALL
USER_CHARGE


@<TRIPOS>ATOM
      1 O1         -2.0968   -6.6928    1.8556 O.co2     1 <1>        -0.5000
      2 C2         -1.0033   -7.2445    1.8204 C.2       1 <1>         0.5000
      3 O3         -0.5387   -7.7490    2.8356 O.co2     1 <1>        -0.5000
      4 C4         -0.2806   -7.3041    0.6071 C.2       1 <1>        -0.1500
      5 C5         -0.7963   -6.7518   -0.5157 C.2       1 <1>        -0.1200
      6 C6         -0.0454   -6.8137   -1.7762 C.ar      1 <1>        -0.0200
      7 C7          1.2015   -7.4487   -1.8202 C.ar      1 <1>        -0.1100
      8 C8          1.9033   -7.5056   -3.0040 C.ar      1 <1>        -0.1300
      9 C9          1.3778   -6.9342   -4.1553 C.ar      1 <1>         0.0600
     10 O10         2.0745   -6.9936   -5.3194 O.3       1 <1>        -0.4900
     11 C11         0.1358   -6.2996   -4.1199 C.ar      1 <1>         0.0800
     12 O12        -0.3750   -5.7419   -5.2501 O.3       1 <1>        -0.4900
     13 C13        -0.5772   -6.2427   -2.9396 C.ar      1 <1>        -0.1300
     14 H14         0.6832   -7.7905    0.5760 H         1 <1>         0.1000
     15 H15        -1.7601   -6.2654   -0.4846 H         1 <1>         0.1300
     16 H16         1.6131   -7.8933   -0.9262 H         1 <1>         0.1400
     17 H17         2.8652   -7.9957   -3.0368 H         1 <1>         0.1300
     18 H18         1.8799   -7.7750   -5.8548 H         1 <1>         0.3800
     19 H19        -0.9190   -6.3448   -5.7750 H         1 <1>         0.3800
     20 H20        -1.5388   -5.7517   -2.9109 H         1 <1>         0.1400
@<TRIPOS>BOND
     1    1    2 ar
     2    2    3 ar
     3    2    4 1
     4    4    5 2
     5    4   14 1
     6    5    6 1
     7    5   15 1
     8    6   13 ar
     9    6    7 ar
    10    7    8 ar
    11    7   16 1
    12    8    9 ar
    13    8   17 1
    14    9   10 1
    15    9   11 ar
    16   10   18 1
    17   11   12 1
    18   11   13 ar
    19   12   19 1
    20   13   20 1
@<TRIPOS>Similarity
1.0768
@<TRIPOS>ShapeSim
0.5785
@<TRIPOS>PharmSim
0.4983
# END
# Name:		O=C1C(OC)=C(OC2=CC(O)=CC(O)=C21)C3=CC=CC=C3
# Created and modified by SHAFTS on Thu Mar 11 04:22:19 2021

# 

@<TRIPOS>MOLECULE
O=C1C(OC)=C(OC2=CC(O)=CC(O)=C21)C3=CC=CC=C3
   32    34     0
SMALL
USER_CHARGE


@<TRIPOS>ATOM
      1 C1         -2.2955   -6.3607    2.2895 C.3       1 <1>           -nan
      2 O2         -1.7042   -5.2591    1.5975 O.3       1 <1>           -nan
      3 C3         -1.3116   -5.4755    0.3129 C.2       1 <1>           -nan
      4 C4         -1.9354   -4.8336   -0.7128 C.2       1 <1>           -nan
      5 C5         -3.0391   -3.9041   -0.4028 C.ar      1 <1>           -nan
      6 C6         -2.8878   -2.9451    0.6017 C.ar      1 <1>           -nan
      7 C7         -3.9234   -2.0795    0.8857 C.ar      1 <1>           -nan
      8 C8         -5.1101   -2.1595    0.1784 C.ar      1 <1>           -nan
      9 C9         -5.2670   -3.1070   -0.8179 C.ar      1 <1>           -nan
     10 C10        -4.2381   -3.9756   -1.1162 C.ar      1 <1>           -nan
     11 O11        -1.5833   -5.0142   -1.9971 O.3       1 <1>           -nan
     12 C12        -0.5854   -5.8461   -2.3619 C.ar      1 <1>           -nan
     13 C13        -0.2494   -6.0068   -3.6973 C.ar      1 <1>           -nan
     14 C14         0.7787   -6.8649   -4.0559 C.ar      1 <1>           -nan
     15 O15         1.1016   -7.0163   -5.3657 O.3       1 <1>           -nan
     16 C16         1.4827   -7.5719   -3.0871 C.ar      1 <1>           -nan
     17 C17         1.1627   -7.4251   -1.7502 C.ar      1 <1>           -nan
     18 O18         1.8483   -8.1146   -0.8035 O.3       1 <1>           -nan
     19 C19         0.1249   -6.5597   -1.3801 C.ar      1 <1>           -nan
     20 C20        -0.2434   -6.3689    0.0315 C.2       1 <1>           -nan
     21 O21         0.3428   -6.9582    0.9251 O.2       1 <1>           -nan
     22 H22        -3.2364   -6.6291    1.8090 H         1 <1>           -nan
     23 H23        -1.6172   -7.2135    2.2618 H         1 <1>           -nan
     24 H24        -2.4839   -6.0800    3.3258 H         1 <1>           -nan
     25 H25        -1.9622   -2.8819    1.1547 H         1 <1>           -nan
     26 H26        -3.8079   -1.3378    1.6621 H         1 <1>           -nan
     27 H27        -5.9178   -1.4794    0.4053 H         1 <1>           -nan
     28 H28        -6.1959   -3.1638   -1.3658 H         1 <1>           -nan
     29 H29        -4.3619   -4.7146   -1.8940 H         1 <1>           -nan
     30 H30        -0.7891   -5.4636   -4.4588 H         1 <1>           -nan
     31 H31         2.2812   -8.2376   -3.3800 H         1 <1>           -nan
     32 H32         2.6252   -7.6497   -0.4637 H         1 <1>           -nan
@<TRIPOS>BOND
     1    1    2 1
     2    1   22 1
     3    1   23 1
     4    1   24 1
     5    2    3 1
     6    3   20 1
     7    3    4 2
     8    4    5 1
     9    4   11 1
    10    5   10 ar
    11    5    6 ar
    12    6    7 ar
    13    6   25 1
    14    7    8 ar
    15    7   26 1
    16    8    9 ar
    17    8   27 1
    18    9   10 ar
    19    9   28 1
    20   10   29 1
    21   11   12 1
    22   12   19 ar
    23   12   13 ar
    24   13   14 ar
    25   13   30 1
    26   14   15 1
    27   14   16 ar
    28   16   17 ar
    29   16   31 1
    30   17   18 1
    31   17   19 ar
    32   18   32 1
    33   19   20 1
    34   20   21 2
@<TRIPOS>Similarity
1.0745
@<TRIPOS>ShapeSim
0.7612
@<TRIPOS>PharmSim
0.3133
# END
# Name:		C1=CC=C2C(=C1)C(=O)NC(=N2)CC3=CSC4=C3C=C(C=C4)Cl
# Created and modified by SHAFTS on Thu Mar 11 04:22:19 2021

# 

@<TRIPOS>MOLECULE
C1=CC=C2C(=C1)C(=O)NC(=N2)CC3=CSC4=C3C=C(C=C4)Cl
   33    36     0
SMALL
USER_CHARGE


@<TRIPOS>ATOM
      1 O1         -1.5689   -0.2077    0.1078 O.2       1 <1>        -0.4676
      2 C2         -1.5267   -1.4220    0.0360 C.2       1 <1>         0.1251
      3 N3         -0.3466   -2.0839    0.0021 N.am      1 <1>        -0.2630
      4 C4         -0.3159   -3.4398   -0.0782 C.2       1 <1>         0.0292
      5 C5          1.0266   -4.1236   -0.1121 C.3       1 <1>         0.0589
      6 C6          0.8286   -5.6148   -0.2015 C.2       1 <1>        -0.0571
      7 C7          0.8206   -6.3943    0.8616 C.2       1 <1>        -0.0271
      8 S8          0.5687   -8.0725    0.4225 S.3       1 <1>        -0.1167
      9 C9          0.4716   -7.6805   -1.2898 C.ar      1 <1>        -0.0224
     10 C10         0.2710   -8.5062   -2.3999 C.ar      1 <1>        -0.0733
     11 C11         0.2309   -7.9710   -3.6654 C.ar      1 <1>        -0.0648
     12 C12         0.3895   -6.6033   -3.8507 C.ar      1 <1>        -0.0052
     13 Cl13        0.3372   -5.9383   -5.4534 Cl        1 <1>        -0.1375
     14 C14         0.5866   -5.7748   -2.7748 C.ar      1 <1>        -0.0551
     15 C15         0.6259   -6.3028   -1.4663 C.ar      1 <1>        -0.0605
     16 N16        -1.3837   -4.1767   -0.1266 N.2       1 <1>        -0.3588
     17 C17        -2.6258   -3.6316   -0.0999 C.ar      1 <1>        -0.0090
     18 C18        -3.7743   -4.4234   -0.1524 C.ar      1 <1>        -0.0519
     19 C19        -5.0154   -3.8274   -0.1232 C.ar      1 <1>        -0.0835
     20 C20        -5.1397   -2.4468   -0.0424 C.ar      1 <1>        -0.0908
     21 C21        -4.0207   -1.6442    0.0106 C.ar      1 <1>        -0.0648
     22 C22        -2.7561   -2.2277   -0.0110 C.ar      1 <1>         0.0484
     23 H23         0.4849   -1.5855    0.0351 H         1 <1>         0.3457
     24 H24         1.5881   -3.7789   -0.9806 H         1 <1>         0.1330
     25 H25         1.5794   -3.8843    0.7963 H         1 <1>         0.1402
     26 H26         0.9527   -6.0435    1.8744 H         1 <1>         0.1574
     27 H27         0.1470   -9.5703   -2.2625 H         1 <1>         0.1414
     28 H28         0.0762   -8.6156   -4.5181 H         1 <1>         0.1392
     29 H29         0.7089   -4.7131   -2.9297 H         1 <1>         0.1406
     30 H30        -3.6899   -5.4982   -0.2160 H         1 <1>         0.1435
     31 H31        -5.9029   -4.4413   -0.1639 H         1 <1>         0.1403
     32 H32        -6.1218   -1.9982   -0.0214 H         1 <1>         0.1196
     33 H33        -4.1237   -0.5710    0.0734 H         1 <1>         0.1465
@<TRIPOS>BOND
     1    1    2 2
     2    2   22 1
     3    2    3 am
     4    3    4 1
     5    3   23 1
     6    4    5 1
     7    4   16 2
     8    5    6 1
     9    5   24 1
    10    5   25 1
    11    6   15 1
    12    6    7 2
    13    7    8 1
    14    7   26 1
    15    8    9 1
    16    9   15 ar
    17    9   10 ar
    18   10   11 ar
    19   10   27 1
    20   11   12 ar
    21   11   28 1
    22   12   13 1
    23   12   14 ar
    24   14   15 ar
    25   14   29 1
    26   16   17 1
    27   17   22 ar
    28   17   18 ar
    29   18   19 ar
    30   18   30 1
    31   19   20 ar
    32   19   31 1
    33   20   21 ar
    34   20   32 1
    35   21   22 ar
    36   21   33 1
@<TRIPOS>Similarity
1.0739
@<TRIPOS>ShapeSim
0.7732
@<TRIPOS>PharmSim
0.3007
# END
# Name:		CC1(C=CC2=C(O1)C=CC(=C2O)C3=COC4=CC(=CC(=C4C3=O)O)O)C
# Created and modified by SHAFTS on Thu Mar 11 04:22:19 2021

# 

@<TRIPOS>MOLECULE
CC1(C=CC2=C(O1)C=CC(=C2O)C3=COC4=CC(=CC(=C4C3=O)O)O)C
   41    44     0
SMALL
USER_CHARGE


@<TRIPOS>ATOM
      1 C1         -7.4280   -1.5337   -1.2828 C.3       1 <1>        -0.0330
      2 C2         -7.1673   -1.5938    0.2237 C.3       1 <1>         0.0141
      3 C3         -8.0739   -0.5860    0.9332 C.3       1 <1>        -0.0259
      4 C4         -7.4767   -2.9791    0.7265 C.2       1 <1>        -0.0960
      5 C5         -6.5287   -3.9143    0.7278 C.2       1 <1>        -0.0913
      6 C6         -5.1841   -3.5422    0.2385 C.ar      1 <1>        -0.0156
      7 C7         -4.8656   -2.1805    0.1313 C.ar      1 <1>         0.0096
      8 C8         -3.6164   -1.7968   -0.3231 C.ar      1 <1>        -0.0477
      9 C9         -2.6822   -2.7528   -0.6724 C.ar      1 <1>        -0.0665
     10 C10        -2.9870   -4.1091   -0.5709 C.ar      1 <1>        -0.0270
     11 C11        -1.9764   -5.1269   -0.9492 C.2       1 <1>         0.0319
     12 C12        -1.3122   -5.8374   -0.0020 C.2       1 <1>         0.0459
     13 O13        -0.4088   -6.7741   -0.2943 O.3       1 <1>        -0.3513
     14 C14         0.1364   -6.8610   -1.5226 C.ar      1 <1>         0.0248
     15 C15         1.2909   -7.6035   -1.7286 C.ar      1 <1>        -0.0310
     16 C16         1.8414   -7.6966   -2.9968 C.ar      1 <1>        -0.0636
     17 O17         2.9720   -8.4236   -3.1855 O.3       1 <1>        -0.5676
     18 C18         1.2491   -7.0541   -4.0786 C.ar      1 <1>        -0.0359
     19 C19         0.0999   -6.3069   -3.8958 C.ar      1 <1>        -0.0239
     20 O20        -0.4844   -5.6814   -4.9487 O.3       1 <1>        -0.4294
     21 C21        -0.4556   -6.2012   -2.6152 C.ar      1 <1>         0.0378
     22 C22        -1.6683   -5.4010   -2.3668 C.2       1 <1>         0.0759
     23 O23        -2.3698   -4.9890   -3.2750 O.2       1 <1>        -0.4794
     24 C24        -4.2452   -4.5099   -0.1120 C.ar      1 <1>        -0.0040
     25 O25        -4.5496   -5.8295   -0.0098 O.3       1 <1>        -0.4201
     26 O26        -5.8022   -1.2605    0.4792 O.3       1 <1>        -0.4049
     27 H27        -6.7770   -2.2439   -1.7927 H         1 <1>         0.0424
     28 H28        -8.4691   -1.7874   -1.4817 H         1 <1>         0.0496
     29 H29        -7.2234   -0.5269   -1.6470 H         1 <1>         0.0496
     30 H30        -9.1168   -0.8317    0.7329 H         1 <1>         0.0660
     31 H31        -7.8911   -0.6260    2.0070 H         1 <1>         0.0589
     32 H32        -7.8599    0.4174    0.5651 H         1 <1>         0.0589
     33 H33        -8.4674   -3.2142    1.0863 H         1 <1>         0.1080
     34 H34        -6.7360   -4.9154    1.0758 H         1 <1>         0.1266
     35 H35        -3.3714   -0.7481   -0.4052 H         1 <1>         0.1348
     36 H36        -1.7089   -2.4470   -1.0268 H         1 <1>         0.1475
     37 H37        -1.5250   -5.6343    1.0372 H         1 <1>         0.2362
     38 H38         1.7612   -8.1096   -0.8985 H         1 <1>         0.1019
     39 H39         1.6870   -7.1385   -5.0622 H         1 <1>         0.1029
     40 H40        -1.1449   -6.2181   -5.4078 H         1 <1>         0.3593
     41 H41        -4.3335   -6.2177    0.8492 H         1 <1>         0.3617
@<TRIPOS>BOND
     1    1    2 1
     2    1   27 1
     3    1   28 1
     4    1   29 1
     5    2   26 1
     6    2    3 1
     7    2    4 1
     8    3   30 1
     9    3   31 1
    10    3   32 1
    11    4    5 2
    12    4   33 1
    13    5    6 1
    14    5   34 1
    15    6   24 ar
    16    6    7 ar
    17    7    8 ar
    18    7   26 1
    19    8    9 ar
    20    8   35 1
    21    9   10 ar
    22    9   36 1
    23   10   11 1
    24   10   24 ar
    25   11   22 1
    26   11   12 2
    27   12   13 1
    28   12   37 1
    29   13   14 1
    30   14   21 ar
    31   14   15 ar
    32   15   16 ar
    33   15   38 1
    34   16   17 1
    35   16   18 ar
    36   18   19 ar
    37   18   39 1
    38   19   20 1
    39   19   21 ar
    40   20   40 1
    41   21   22 1
    42   22   23 2
    43   24   25 1
    44   25   41 1
@<TRIPOS>Similarity
1.0679
@<TRIPOS>ShapeSim
0.7193
@<TRIPOS>PharmSim
0.3486
# END
# Name:		CN1C=NC2=C(N=C(N=C21)NCCO)NCC3=CC=CC=C3
# Created and modified by SHAFTS on Thu Mar 11 04:22:19 2021

# 

@<TRIPOS>MOLECULE
CN1C=NC2=C(N=C(N=C21)NCCO)NCC3=CC=CC=C3
   40    42     0
SMALL
USER_CHARGE


@<TRIPOS>ATOM
      1 C1          2.6733   -8.3261   -3.6652 C.3       1 <1>         0.0057
      2 N2          1.5409   -7.5149   -3.2111 N.pl3     1 <1>        -0.3162
      3 C3          0.7173   -6.7652   -3.9993 C.2       1 <1>         0.0221
      4 N4         -0.1812   -6.1745   -3.2672 N.2       1 <1>        -0.3708
      5 C5          0.0075   -6.5062   -1.9662 C.ar      1 <1>         0.0828
      6 C6         -0.6379   -6.1784   -0.7613 C.ar      1 <1>         0.0513
      7 N7         -1.7330   -5.3327   -0.7536 N.pl3     1 <1>        -0.3413
      8 C8         -2.3937   -5.0016    0.5114 C.3       1 <1>        -0.0044
      9 C9         -3.5488   -4.0708    0.2461 C.ar      1 <1>        -0.0866
     10 C10        -3.3498   -2.7029    0.2525 C.ar      1 <1>        -0.0984
     11 C11        -4.4094   -1.8491    0.0090 C.ar      1 <1>        -0.1056
     12 C12        -5.6679   -2.3632   -0.2412 C.ar      1 <1>        -0.1075
     13 C13        -5.8668   -3.7312   -0.2485 C.ar      1 <1>        -0.1056
     14 C14        -4.8063   -4.5851   -0.0093 C.ar      1 <1>        -0.0984
     15 N15        -0.1740   -6.6981    0.3697 N.ar      1 <1>        -0.3025
     16 C16         0.8753   -7.5103    0.3717 C.ar      1 <1>         0.0627
     17 N17         1.3198   -8.0257    1.5781 N.pl3     1 <1>        -0.3286
     18 C18         0.6336   -7.6720    2.8231 C.3       1 <1>        -0.0019
     19 C19         1.3192   -8.3699    3.9994 C.3       1 <1>        -0.0094
     20 O20         2.6483   -7.8652    4.1437 O.3       1 <1>        -0.4912
     21 N21         1.5115   -7.8449   -0.7392 N.ar      1 <1>        -0.3275
     22 C22         1.1107   -7.3744   -1.9161 C.ar      1 <1>         0.0444
     23 H23         2.3282   -9.3334   -3.8984 H         1 <1>         0.1000
     24 H24         3.1084   -7.8755   -4.5572 H         1 <1>         0.1144
     25 H25         3.4256   -8.3728   -2.8778 H         1 <1>         0.1144
     26 H26         0.7993   -6.6753   -5.0725 H         1 <1>         0.2864
     27 H27        -2.0632   -4.9593   -1.5856 H         1 <1>         0.3213
     28 H28        -2.7627   -5.9146    0.9785 H         1 <1>         0.1205
     29 H29        -1.6809   -4.5153    1.1772 H         1 <1>         0.1205
     30 H30        -2.3665   -2.3012    0.4479 H         1 <1>         0.1177
     31 H31        -4.2540   -0.7803    0.0148 H         1 <1>         0.1128
     32 H32        -6.4959   -1.6961   -0.4306 H         1 <1>         0.1142
     33 H33        -6.8502   -4.1329   -0.4436 H         1 <1>         0.1128
     34 H34        -4.9617   -5.6539   -0.0150 H         1 <1>         0.1177
     35 H35         2.0854   -8.6211    1.5985 H         1 <1>         0.3241
     36 H36         0.6751   -6.5924    2.9669 H         1 <1>         0.1092
     37 H37        -0.4072   -7.9914    2.7677 H         1 <1>         0.1164
     38 H38         0.7567   -8.1787    4.9133 H         1 <1>         0.0987
     39 H39         1.3564   -9.4433    3.8135 H         1 <1>         0.0843
     40 H40         3.1435   -8.2639    4.8723 H         1 <1>         0.3213
@<TRIPOS>BOND
     1    1    2 1
     2    1   23 1
     3    1   24 1
     4    1   25 1
     5    2   22 1
     6    2    3 1
     7    3    4 2
     8    3   26 1
     9    4    5 1
    10    5   22 ar
    11    5    6 ar
    12    6    7 1
    13    6   15 ar
    14    7    8 1
    15    7   27 1
    16    8    9 1
    17    8   28 1
    18    8   29 1
    19    9   14 ar
    20    9   10 ar
    21   10   11 ar
    22   10   30 1
    23   11   12 ar
    24   11   31 1
    25   12   13 ar
    26   12   32 1
    27   13   14 ar
    28   13   33 1
    29   14   34 1
    30   15   16 ar
    31   16   17 1
    32   16   21 ar
    33   17   18 1
    34   17   35 1
    35   18   19 1
    36   18   36 1
    37   18   37 1
    38   19   20 1
    39   19   38 1
    40   19   39 1
    41   20   40 1
    42   21   22 ar
@<TRIPOS>Similarity
1.0679
@<TRIPOS>ShapeSim
0.7901
@<TRIPOS>PharmSim
0.2778
# END
# Name:		CN(C=N1)C2=C1C(NCC3=CC=CC=C3)=NC(NCCO)=N2
# Created and modified by SHAFTS on Thu Mar 11 04:22:19 2021

# 

@<TRIPOS>MOLECULE
CN(C=N1)C2=C1C(NCC3=CC=CC=C3)=NC(NCCO)=N2
   40    42     0
SMALL
USER_CHARGE


@<TRIPOS>ATOM
      1 C1          2.6733   -8.3261   -3.6652 C.3       1 <1>         0.0057
      2 N2          1.5409   -7.5149   -3.2111 N.pl3     1 <1>        -0.3162
      3 C3          0.7173   -6.7652   -3.9993 C.2       1 <1>         0.0221
      4 N4         -0.1812   -6.1745   -3.2672 N.2       1 <1>        -0.3708
      5 C5          0.0075   -6.5062   -1.9662 C.ar      1 <1>         0.0828
      6 C6         -0.6379   -6.1784   -0.7613 C.ar      1 <1>         0.0513
      7 N7         -1.7330   -5.3327   -0.7536 N.pl3     1 <1>        -0.3413
      8 C8         -2.3937   -5.0016    0.5114 C.3       1 <1>        -0.0044
      9 C9         -3.5488   -4.0708    0.2461 C.ar      1 <1>        -0.0866
     10 C10        -3.3498   -2.7029    0.2525 C.ar      1 <1>        -0.0984
     11 C11        -4.4094   -1.8491    0.0090 C.ar      1 <1>        -0.1056
     12 C12        -5.6679   -2.3632   -0.2412 C.ar      1 <1>        -0.1075
     13 C13        -5.8668   -3.7312   -0.2485 C.ar      1 <1>        -0.1056
     14 C14        -4.8063   -4.5851   -0.0093 C.ar      1 <1>        -0.0984
     15 N15        -0.1740   -6.6981    0.3697 N.ar      1 <1>        -0.3025
     16 C16         0.8753   -7.5103    0.3717 C.ar      1 <1>         0.0627
     17 N17         1.3198   -8.0257    1.5781 N.pl3     1 <1>        -0.3286
     18 C18         0.6336   -7.6720    2.8231 C.3       1 <1>        -0.0019
     19 C19         1.3192   -8.3699    3.9994 C.3       1 <1>        -0.0094
     20 O20         2.6483   -7.8652    4.1437 O.3       1 <1>        -0.4912
     21 N21         1.5115   -7.8449   -0.7392 N.ar      1 <1>        -0.3275
     22 C22         1.1107   -7.3744   -1.9161 C.ar      1 <1>         0.0444
     23 H23         2.3282   -9.3334   -3.8984 H         1 <1>         0.1000
     24 H24         3.1084   -7.8755   -4.5572 H         1 <1>         0.1144
     25 H25         3.4256   -8.3728   -2.8778 H         1 <1>         0.1144
     26 H26         0.7993   -6.6753   -5.0725 H         1 <1>         0.2864
     27 H27        -2.0632   -4.9593   -1.5856 H         1 <1>         0.3213
     28 H28        -2.7627   -5.9146    0.9785 H         1 <1>         0.1205
     29 H29        -1.6809   -4.5153    1.1772 H         1 <1>         0.1205
     30 H30        -2.3665   -2.3012    0.4479 H         1 <1>         0.1177
     31 H31        -4.2540   -0.7803    0.0148 H         1 <1>         0.1128
     32 H32        -6.4959   -1.6961   -0.4306 H         1 <1>         0.1142
     33 H33        -6.8502   -4.1329   -0.4436 H         1 <1>         0.1128
     34 H34        -4.9617   -5.6539   -0.0150 H         1 <1>         0.1177
     35 H35         2.0854   -8.6211    1.5985 H         1 <1>         0.3241
     36 H36         0.6751   -6.5924    2.9669 H         1 <1>         0.1092
     37 H37        -0.4072   -7.9914    2.7677 H         1 <1>         0.1164
     38 H38         0.7567   -8.1787    4.9133 H         1 <1>         0.0987
     39 H39         1.3564   -9.4433    3.8135 H         1 <1>         0.0843
     40 H40         3.1435   -8.2639    4.8723 H         1 <1>         0.3213
@<TRIPOS>BOND
     1    1    2 1
     2    1   23 1
     3    1   24 1
     4    1   25 1
     5    2   22 1
     6    2    3 1
     7    3    4 2
     8    3   26 1
     9    4    5 1
    10    5   22 ar
    11    5    6 ar
    12    6    7 1
    13    6   15 ar
    14    7    8 1
    15    7   27 1
    16    8    9 1
    17    8   28 1
    18    8   29 1
    19    9   14 ar
    20    9   10 ar
    21   10   11 ar
    22   10   30 1
    23   11   12 ar
    24   11   31 1
    25   12   13 ar
    26   12   32 1
    27   13   14 ar
    28   13   33 1
    29   14   34 1
    30   15   16 ar
    31   16   17 1
    32   16   21 ar
    33   17   18 1
    34   17   35 1
    35   18   19 1
    36   18   36 1
    37   18   37 1
    38   19   20 1
    39   19   38 1
    40   19   39 1
    41   20   40 1
    42   21   22 ar
@<TRIPOS>Similarity
1.0679
@<TRIPOS>ShapeSim
0.7901
@<TRIPOS>PharmSim
0.2778
# END
# Name:		CN1C=NC2=C(N=C(N=C21)NCCO)NCC3=CC=CC=C3
# Created and modified by SHAFTS on Thu Mar 11 04:22:19 2021

# 

@<TRIPOS>MOLECULE
CN1C=NC2=C(N=C(N=C21)NCCO)NCC3=CC=CC=C3
   40    42     0
SMALL
USER_CHARGE


@<TRIPOS>ATOM
      1 C1          2.6733   -8.3261   -3.6652 C.3       1 <1>         0.0057
      2 N2          1.5409   -7.5149   -3.2111 N.pl3     1 <1>        -0.3162
      3 C3          0.7173   -6.7652   -3.9993 C.2       1 <1>         0.0221
      4 N4         -0.1812   -6.1745   -3.2672 N.2       1 <1>        -0.3708
      5 C5          0.0075   -6.5062   -1.9662 C.ar      1 <1>         0.0828
      6 C6         -0.6379   -6.1784   -0.7613 C.ar      1 <1>         0.0513
      7 N7         -1.7330   -5.3327   -0.7536 N.pl3     1 <1>        -0.3413
      8 C8         -2.3937   -5.0016    0.5114 C.3       1 <1>        -0.0044
      9 C9         -3.5488   -4.0708    0.2461 C.ar      1 <1>        -0.0866
     10 C10        -3.3498   -2.7029    0.2525 C.ar      1 <1>        -0.0984
     11 C11        -4.4094   -1.8491    0.0090 C.ar      1 <1>        -0.1056
     12 C12        -5.6679   -2.3632   -0.2412 C.ar      1 <1>        -0.1075
     13 C13        -5.8668   -3.7312   -0.2485 C.ar      1 <1>        -0.1056
     14 C14        -4.8063   -4.5851   -0.0093 C.ar      1 <1>        -0.0984
     15 N15        -0.1740   -6.6981    0.3697 N.ar      1 <1>        -0.3025
     16 C16         0.8753   -7.5103    0.3717 C.ar      1 <1>         0.0627
     17 N17         1.3198   -8.0257    1.5781 N.pl3     1 <1>        -0.3286
     18 C18         0.6336   -7.6720    2.8231 C.3       1 <1>        -0.0019
     19 C19         1.3192   -8.3699    3.9994 C.3       1 <1>        -0.0094
     20 O20         2.6483   -7.8652    4.1437 O.3       1 <1>        -0.4912
     21 N21         1.5115   -7.8449   -0.7392 N.ar      1 <1>        -0.3275
     22 C22         1.1107   -7.3744   -1.9161 C.ar      1 <1>         0.0444
     23 H23         2.3282   -9.3334   -3.8984 H         1 <1>         0.1000
     24 H24         3.1084   -7.8755   -4.5572 H         1 <1>         0.1144
     25 H25         3.4256   -8.3728   -2.8778 H         1 <1>         0.1144
     26 H26         0.7993   -6.6753   -5.0725 H         1 <1>         0.2864
     27 H27        -2.0632   -4.9593   -1.5856 H         1 <1>         0.3213
     28 H28        -2.7627   -5.9146    0.9785 H         1 <1>         0.1205
     29 H29        -1.6809   -4.5153    1.1772 H         1 <1>         0.1205
     30 H30        -2.3665   -2.3012    0.4479 H         1 <1>         0.1177
     31 H31        -4.2540   -0.7803    0.0148 H         1 <1>         0.1128
     32 H32        -6.4959   -1.6961   -0.4306 H         1 <1>         0.1142
     33 H33        -6.8502   -4.1329   -0.4436 H         1 <1>         0.1128
     34 H34        -4.9617   -5.6539   -0.0150 H         1 <1>         0.1177
     35 H35         2.0854   -8.6211    1.5985 H         1 <1>         0.3241
     36 H36         0.6751   -6.5924    2.9669 H         1 <1>         0.1092
     37 H37        -0.4072   -7.9914    2.7677 H         1 <1>         0.1164
     38 H38         0.7567   -8.1787    4.9133 H         1 <1>         0.0987
     39 H39         1.3564   -9.4433    3.8135 H         1 <1>         0.0843
     40 H40         3.1435   -8.2639    4.8723 H         1 <1>         0.3213
@<TRIPOS>BOND
     1    1    2 1
     2    1   23 1
     3    1   24 1
     4    1   25 1
     5    2   22 1
     6    2    3 1
     7    3    4 2
     8    3   26 1
     9    4    5 1
    10    5   22 ar
    11    5    6 ar
    12    6    7 1
    13    6   15 ar
    14    7    8 1
    15    7   27 1
    16    8    9 1
    17    8   28 1
    18    8   29 1
    19    9   14 ar
    20    9   10 ar
    21   10   11 ar
    22   10   30 1
    23   11   12 ar
    24   11   31 1
    25   12   13 ar
    26   12   32 1
    27   13   14 ar
    28   13   33 1
    29   14   34 1
    30   15   16 ar
    31   16   17 1
    32   16   21 ar
    33   17   18 1
    34   17   35 1
    35   18   19 1
    36   18   36 1
    37   18   37 1
    38   19   20 1
    39   19   38 1
    40   19   39 1
    41   20   40 1
    42   21   22 ar
@<TRIPOS>Similarity
1.0679
@<TRIPOS>ShapeSim
0.7901
@<TRIPOS>PharmSim
0.2778
# END
# Name:		C1C(OC2=CC(=CC(=C2C1=O)O)O)C3=CC=C(C=C3)O
# Created and modified by SHAFTS on Thu Mar 11 04:22:19 2021

# 

@<TRIPOS>MOLECULE
C1C(OC2=CC(=CC(=C2C1=O)O)O)C3=CC=C(C=C3)O
   32    34     0
SMALL
USER_CHARGE


@<TRIPOS>ATOM
      1 O1          0.5354   -6.7898    0.9521 O.2       1 <1>        -0.4549
      2 C2         -0.1920   -6.3707    0.0754 C.2       1 <1>         0.0866
      3 C3         -1.4821   -5.6357    0.3922 C.3       1 <1>         0.0706
      4 C4         -1.6001   -4.4744   -0.6055 C.3       1 <1>         0.0635
      5 H5         -0.7546   -3.7984   -0.4785 H         1 <1>         0.1402
      6 C6         -2.8842   -3.7261   -0.3568 C.ar      1 <1>        -0.0645
      7 C7         -4.0790   -4.2256   -0.8414 C.ar      1 <1>        -0.0822
      8 C8         -5.2576   -3.5415   -0.6147 C.ar      1 <1>        -0.0655
      9 C9         -5.2417   -2.3526    0.1001 C.ar      1 <1>        -0.0394
     10 O10        -6.3999   -1.6780    0.3248 O.3       1 <1>        -0.4395
     11 C11        -4.0417   -1.8538    0.5856 C.ar      1 <1>        -0.0649
     12 C12        -2.8665   -2.5441    0.3604 C.ar      1 <1>        -0.0828
     13 O13        -1.5999   -4.9927   -1.9356 O.3       1 <1>        -0.3858
     14 C14        -0.6010   -5.8275   -2.3072 C.ar      1 <1>         0.0330
     15 C15        -0.2906   -5.9799   -3.6467 C.ar      1 <1>        -0.0094
     16 C16         0.7285   -6.8409   -4.0344 C.ar      1 <1>        -0.0128
     17 O17         1.0241   -6.9813   -5.3511 O.3       1 <1>        -0.4242
     18 C18         1.4483   -7.5592   -3.0880 C.ar      1 <1>        -0.0189
     19 C19         1.1563   -7.4196   -1.7426 C.ar      1 <1>        -0.0008
     20 O20         1.8558   -8.1198   -0.8157 O.3       1 <1>        -0.4187
     21 C21         0.1335   -6.5431   -1.3446 C.ar      1 <1>         0.0588
     22 H22        -2.3309   -6.3102    0.2790 H         1 <1>         0.1104
     23 H23        -1.4481   -5.2482    1.4105 H         1 <1>         0.1104
     24 H24        -4.0909   -5.1512   -1.3978 H         1 <1>         0.1330
     25 H25        -6.1905   -3.9317   -0.9940 H         1 <1>         0.1246
     26 H26        -6.8515   -1.9329    1.1409 H         1 <1>         0.3541
     27 H27        -4.0268   -0.9283    1.1421 H         1 <1>         0.1267
     28 H28        -1.9321   -2.1564    0.7385 H         1 <1>         0.1309
     29 H29        -0.8424   -5.4280   -4.3932 H         1 <1>         0.1440
     30 H30         1.6918   -6.3601   -5.6727 H         1 <1>         0.3676
     31 H31         2.2366   -8.2270   -3.4025 H         1 <1>         0.1388
     32 H32         2.6425   -7.6626   -0.4885 H         1 <1>         0.3710
@<TRIPOS>BOND
     1    1    2 2
     2    2   21 1
     3    2    3 1
     4    3    4 1
     5    3   22 1
     6    3   23 1
     7    4    5 1
     8    4    6 1
     9    4   13 1
    10    6   12 ar
    11    6    7 ar
    12    7    8 ar
    13    7   24 1
    14    8    9 ar
    15    8   25 1
    16    9   10 1
    17    9   11 ar
    18   10   26 1
    19   11   12 ar
    20   11   27 1
    21   12   28 1
    22   13   14 1
    23   14   21 ar
    24   14   15 ar
    25   15   16 ar
    26   15   29 1
    27   16   17 1
    28   16   18 ar
    29   17   30 1
    30   18   19 ar
    31   18   31 1
    32   19   20 1
    33   19   21 ar
    34   20   32 1
@<TRIPOS>Similarity
1.0665
@<TRIPOS>ShapeSim
0.7963
@<TRIPOS>PharmSim
0.2702
# END
# Name:		C1C(OC2=CC(=CC(=C2C1=O)O)O)C3=CC=C(C=C3)O
# Created and modified by SHAFTS on Thu Mar 11 04:22:19 2021

# 

@<TRIPOS>MOLECULE
C1C(OC2=CC(=CC(=C2C1=O)O)O)C3=CC=C(C=C3)O
   32    34     0
SMALL
USER_CHARGE


@<TRIPOS>ATOM
      1 O1          0.5354   -6.7898    0.9521 O.2       1 <1>        -0.4549
      2 C2         -0.1920   -6.3707    0.0754 C.2       1 <1>         0.0866
      3 C3         -1.4821   -5.6357    0.3922 C.3       1 <1>         0.0706
      4 C4         -1.6001   -4.4744   -0.6055 C.3       1 <1>         0.0635
      5 H5         -0.7546   -3.7984   -0.4785 H         1 <1>         0.1402
      6 C6         -2.8842   -3.7261   -0.3568 C.ar      1 <1>        -0.0645
      7 C7         -4.0790   -4.2256   -0.8414 C.ar      1 <1>        -0.0822
      8 C8         -5.2576   -3.5415   -0.6147 C.ar      1 <1>        -0.0655
      9 C9         -5.2417   -2.3526    0.1001 C.ar      1 <1>        -0.0394
     10 O10        -6.3999   -1.6780    0.3248 O.3       1 <1>        -0.4395
     11 C11        -4.0417   -1.8538    0.5856 C.ar      1 <1>        -0.0649
     12 C12        -2.8665   -2.5441    0.3604 C.ar      1 <1>        -0.0828
     13 O13        -1.5999   -4.9927   -1.9356 O.3       1 <1>        -0.3858
     14 C14        -0.6010   -5.8275   -2.3072 C.ar      1 <1>         0.0330
     15 C15        -0.2906   -5.9799   -3.6467 C.ar      1 <1>        -0.0094
     16 C16         0.7285   -6.8409   -4.0344 C.ar      1 <1>        -0.0128
     17 O17         1.0241   -6.9813   -5.3511 O.3       1 <1>        -0.4242
     18 C18         1.4483   -7.5592   -3.0880 C.ar      1 <1>        -0.0189
     19 C19         1.1563   -7.4196   -1.7426 C.ar      1 <1>        -0.0008
     20 O20         1.8558   -8.1198   -0.8157 O.3       1 <1>        -0.4187
     21 C21         0.1335   -6.5431   -1.3446 C.ar      1 <1>         0.0588
     22 H22        -2.3309   -6.3102    0.2790 H         1 <1>         0.1104
     23 H23        -1.4481   -5.2482    1.4105 H         1 <1>         0.1104
     24 H24        -4.0909   -5.1512   -1.3978 H         1 <1>         0.1330
     25 H25        -6.1905   -3.9317   -0.9940 H         1 <1>         0.1246
     26 H26        -6.8515   -1.9329    1.1409 H         1 <1>         0.3541
     27 H27        -4.0268   -0.9283    1.1421 H         1 <1>         0.1267
     28 H28        -1.9321   -2.1564    0.7385 H         1 <1>         0.1309
     29 H29        -0.8424   -5.4280   -4.3932 H         1 <1>         0.1440
     30 H30         1.6918   -6.3601   -5.6727 H         1 <1>         0.3676
     31 H31         2.2366   -8.2270   -3.4025 H         1 <1>         0.1388
     32 H32         2.6425   -7.6626   -0.4885 H         1 <1>         0.3710
@<TRIPOS>BOND
     1    1    2 2
     2    2   21 1
     3    2    3 1
     4    3    4 1
     5    3   22 1
     6    3   23 1
     7    4    5 1
     8    4    6 1
     9    4   13 1
    10    6   12 ar
    11    6    7 ar
    12    7    8 ar
    13    7   24 1
    14    8    9 ar
    15    8   25 1
    16    9   10 1
    17    9   11 ar
    18   10   26 1
    19   11   12 ar
    20   11   27 1
    21   12   28 1
    22   13   14 1
    23   14   21 ar
    24   14   15 ar
    25   15   16 ar
    26   15   29 1
    27   16   17 1
    28   16   18 ar
    29   17   30 1
    30   18   19 ar
    31   18   31 1
    32   19   20 1
    33   19   21 ar
    34   20   32 1
@<TRIPOS>Similarity
1.0665
@<TRIPOS>ShapeSim
0.7963
@<TRIPOS>PharmSim
0.2702
# END
# Name:		C1=CC(=C(C2=C1C(=O)C3=C(C=CC(=C3C2=O)O)O)O)O
# Created and modified by SHAFTS on Thu Mar 11 04:22:19 2021

# 

@<TRIPOS>MOLECULE
C1=CC(=C(C2=C1C(=O)C3=C(C=CC(=C3C2=O)O)O)O)O
   28    30     0
SMALL
USER_CHARGE


@<TRIPOS>ATOM
      1 O1         -0.4765   -7.4613    0.4445 O.2       1 <1>        -0.4243
      2 C2         -0.7953   -6.7612   -0.4977 C.2       1 <1>         0.1318
      3 C3         -0.0386   -6.8230   -1.7639 C.ar      1 <1>         0.0378
      4 C4          1.2013   -7.4515   -1.8164 C.ar      1 <1>        -0.0549
      5 C5          1.9017   -7.5038   -3.0085 C.ar      1 <1>        -0.0410
      6 C6          1.3787   -6.9344   -4.1577 C.ar      1 <1>         0.0178
      7 O7          2.0772   -6.9947   -5.3203 O.3       1 <1>        -0.4207
      8 C8          0.1330   -6.2974   -4.1254 C.ar      1 <1>         0.0392
      9 O9         -0.3778   -5.7400   -5.2516 O.3       1 <1>        -0.4110
     10 C10        -0.5792   -6.2388   -2.9285 C.ar      1 <1>         0.0711
     11 C11        -1.8935   -5.5704   -2.8688 C.2       1 <1>         0.1399
     12 O12        -2.4850   -5.2833   -3.8920 O.2       1 <1>        -0.4184
     13 C13        -2.4815   -5.2551   -1.5534 C.ar      1 <1>         0.0699
     14 C14        -3.5656   -4.3829   -1.4502 C.ar      1 <1>         0.0028
     15 O15        -4.0903   -3.8149   -2.5645 O.3       1 <1>        -0.4218
     16 C16        -4.1083   -4.0974   -0.1980 C.ar      1 <1>        -0.0406
     17 C17        -3.5827   -4.6692    0.9386 C.ar      1 <1>        -0.0392
     18 C18        -2.4987   -5.5424    0.8556 C.ar      1 <1>         0.0053
     19 O19        -1.9871   -6.1005    1.9808 O.3       1 <1>        -0.4202
     20 C20        -1.9461   -5.8451   -0.3908 C.ar      1 <1>         0.0706
     21 H21         1.6176   -7.8987   -0.9259 H         1 <1>         0.1530
     22 H22         2.8643   -7.9923   -3.0433 H         1 <1>         0.1507
     23 H23         1.8834   -7.7764   -5.8555 H         1 <1>         0.3685
     24 H24        -0.9218   -6.3426   -5.7769 H         1 <1>         0.3725
     25 H25        -4.7984   -4.3314   -2.9730 H         1 <1>         0.3693
     26 H26        -4.9475   -3.4221   -0.1190 H         1 <1>         0.1508
     27 H27        -4.0129   -4.4394    1.9022 H         1 <1>         0.1513
     28 H28        -2.3943   -6.9439    2.2216 H         1 <1>         0.3697
@<TRIPOS>BOND
     1    1    2 2
     2    2   20 1
     3    2    3 1
     4    3   10 ar
     5    3    4 ar
     6    4    5 ar
     7    4   21 1
     8    5    6 ar
     9    5   22 1
    10    6    7 1
    11    6    8 ar
    12    7   23 1
    13    8    9 1
    14    8   10 ar
    15    9   24 1
    16   10   11 1
    17   11   12 2
    18   11   13 1
    19   13   20 ar
    20   13   14 ar
    21   14   15 1
    22   14   16 ar
    23   15   25 1
    24   16   17 ar
    25   16   26 1
    26   17   18 ar
    27   17   27 1
    28   18   19 1
    29   18   20 ar
    30   19   28 1
@<TRIPOS>Similarity
1.0650
@<TRIPOS>ShapeSim
0.6604
@<TRIPOS>PharmSim
0.4046
# END
# Name:		C1=CC(=C(C2=C1C(=O)C3=C(C=CC(=C3C2=O)O)O)O)O
# Created and modified by SHAFTS on Thu Mar 11 04:22:19 2021

# 

@<TRIPOS>MOLECULE
C1=CC(=C(C2=C1C(=O)C3=C(C=CC(=C3C2=O)O)O)O)O
   28    30     0
SMALL
USER_CHARGE


@<TRIPOS>ATOM
      1 O1         -0.4765   -7.4613    0.4445 O.2       1 <1>        -0.4243
      2 C2         -0.7953   -6.7612   -0.4977 C.2       1 <1>         0.1318
      3 C3         -0.0386   -6.8230   -1.7639 C.ar      1 <1>         0.0378
      4 C4          1.2013   -7.4515   -1.8164 C.ar      1 <1>        -0.0549
      5 C5          1.9017   -7.5038   -3.0085 C.ar      1 <1>        -0.0410
      6 C6          1.3787   -6.9344   -4.1577 C.ar      1 <1>         0.0178
      7 O7          2.0772   -6.9947   -5.3203 O.3       1 <1>        -0.4207
      8 C8          0.1330   -6.2974   -4.1254 C.ar      1 <1>         0.0392
      9 O9         -0.3778   -5.7400   -5.2516 O.3       1 <1>        -0.4110
     10 C10        -0.5792   -6.2388   -2.9285 C.ar      1 <1>         0.0711
     11 C11        -1.8935   -5.5704   -2.8688 C.2       1 <1>         0.1399
     12 O12        -2.4850   -5.2833   -3.8920 O.2       1 <1>        -0.4184
     13 C13        -2.4815   -5.2551   -1.5534 C.ar      1 <1>         0.0699
     14 C14        -3.5656   -4.3829   -1.4502 C.ar      1 <1>         0.0028
     15 O15        -4.0903   -3.8149   -2.5645 O.3       1 <1>        -0.4218
     16 C16        -4.1083   -4.0974   -0.1980 C.ar      1 <1>        -0.0406
     17 C17        -3.5827   -4.6692    0.9386 C.ar      1 <1>        -0.0392
     18 C18        -2.4987   -5.5424    0.8556 C.ar      1 <1>         0.0053
     19 O19        -1.9871   -6.1005    1.9808 O.3       1 <1>        -0.4202
     20 C20        -1.9461   -5.8451   -0.3908 C.ar      1 <1>         0.0706
     21 H21         1.6176   -7.8987   -0.9259 H         1 <1>         0.1530
     22 H22         2.8643   -7.9923   -3.0433 H         1 <1>         0.1507
     23 H23         1.8834   -7.7764   -5.8555 H         1 <1>         0.3685
     24 H24        -0.9218   -6.3426   -5.7769 H         1 <1>         0.3725
     25 H25        -4.7984   -4.3314   -2.9730 H         1 <1>         0.3693
     26 H26        -4.9475   -3.4221   -0.1190 H         1 <1>         0.1508
     27 H27        -4.0129   -4.4394    1.9022 H         1 <1>         0.1513
     28 H28        -2.3943   -6.9439    2.2216 H         1 <1>         0.3697
@<TRIPOS>BOND
     1    1    2 2
     2    2   20 1
     3    2    3 1
     4    3   10 ar
     5    3    4 ar
     6    4    5 ar
     7    4   21 1
     8    5    6 ar
     9    5   22 1
    10    6    7 1
    11    6    8 ar
    12    7   23 1
    13    8    9 1
    14    8   10 ar
    15    9   24 1
    16   10   11 1
    17   11   12 2
    18   11   13 1
    19   13   20 ar
    20   13   14 ar
    21   14   15 1
    22   14   16 ar
    23   15   25 1
    24   16   17 ar
    25   16   26 1
    26   17   18 ar
    27   17   27 1
    28   18   19 1
    29   18   20 ar
    30   19   28 1
@<TRIPOS>Similarity
1.0650
@<TRIPOS>ShapeSim
0.6604
@<TRIPOS>PharmSim
0.4046
# END
# Name:		C1=CC(=C(C2=C1C(=O)C3=C(C=CC(=C3C2=O)O)O)O)O
# Created and modified by SHAFTS on Thu Mar 11 04:22:19 2021

# 

@<TRIPOS>MOLECULE
C1=CC(=C(C2=C1C(=O)C3=C(C=CC(=C3C2=O)O)O)O)O
   28    30     0
SMALL
USER_CHARGE


@<TRIPOS>ATOM
      1 O1         -0.4765   -7.4613    0.4445 O.2       1 <1>        -0.4243
      2 C2         -0.7953   -6.7612   -0.4977 C.2       1 <1>         0.1318
      3 C3         -0.0386   -6.8230   -1.7639 C.ar      1 <1>         0.0378
      4 C4          1.2013   -7.4515   -1.8164 C.ar      1 <1>        -0.0549
      5 C5          1.9017   -7.5038   -3.0085 C.ar      1 <1>        -0.0410
      6 C6          1.3787   -6.9344   -4.1577 C.ar      1 <1>         0.0178
      7 O7          2.0772   -6.9947   -5.3203 O.3       1 <1>        -0.4207
      8 C8          0.1330   -6.2974   -4.1254 C.ar      1 <1>         0.0392
      9 O9         -0.3778   -5.7400   -5.2516 O.3       1 <1>        -0.4110
     10 C10        -0.5792   -6.2388   -2.9285 C.ar      1 <1>         0.0711
     11 C11        -1.8935   -5.5704   -2.8688 C.2       1 <1>         0.1399
     12 O12        -2.4850   -5.2833   -3.8920 O.2       1 <1>        -0.4184
     13 C13        -2.4815   -5.2551   -1.5534 C.ar      1 <1>         0.0699
     14 C14        -3.5656   -4.3829   -1.4502 C.ar      1 <1>         0.0028
     15 O15        -4.0903   -3.8149   -2.5645 O.3       1 <1>        -0.4218
     16 C16        -4.1083   -4.0974   -0.1980 C.ar      1 <1>        -0.0406
     17 C17        -3.5827   -4.6692    0.9386 C.ar      1 <1>        -0.0392
     18 C18        -2.4987   -5.5424    0.8556 C.ar      1 <1>         0.0053
     19 O19        -1.9871   -6.1005    1.9808 O.3       1 <1>        -0.4202
     20 C20        -1.9461   -5.8451   -0.3908 C.ar      1 <1>         0.0706
     21 H21         1.6176   -7.8987   -0.9259 H         1 <1>         0.1530
     22 H22         2.8643   -7.9923   -3.0433 H         1 <1>         0.1507
     23 H23         1.8834   -7.7764   -5.8555 H         1 <1>         0.3685
     24 H24        -0.9218   -6.3426   -5.7769 H         1 <1>         0.3725
     25 H25        -4.7984   -4.3314   -2.9730 H         1 <1>         0.3693
     26 H26        -4.9475   -3.4221   -0.1190 H         1 <1>         0.1508
     27 H27        -4.0129   -4.4394    1.9022 H         1 <1>         0.1513
     28 H28        -2.3943   -6.9439    2.2216 H         1 <1>         0.3697
@<TRIPOS>BOND
     1    1    2 2
     2    2   20 1
     3    2    3 1
     4    3   10 ar
     5    3    4 ar
     6    4    5 ar
     7    4   21 1
     8    5    6 ar
     9    5   22 1
    10    6    7 1
    11    6    8 ar
    12    7   23 1
    13    8    9 1
    14    8   10 ar
    15    9   24 1
    16   10   11 1
    17   11   12 2
    18   11   13 1
    19   13   20 ar
    20   13   14 ar
    21   14   15 1
    22   14   16 ar
    23   15   25 1
    24   16   17 ar
    25   16   26 1
    26   17   18 ar
    27   17   27 1
    28   18   19 1
    29   18   20 ar
    30   19   28 1
@<TRIPOS>Similarity
1.0650
@<TRIPOS>ShapeSim
0.6604
@<TRIPOS>PharmSim
0.4046
# END
# Name:		C1=CC(=CC=C1[C@@H]2[C@H](C(=O)C3=C(C=C(C=C3O2)O)O)O)O
# Created and modified by SHAFTS on Thu Mar 11 04:22:19 2021

# 

@<TRIPOS>MOLECULE
C1=CC(=CC=C1[C@@H]2[C@H](C(=O)C3=C(C=C(C=C3O2)O)O)O)O
   33    35     0
SMALL
USER_CHARGE


@<TRIPOS>ATOM
      1 O1          0.4979   -6.6547    1.3251 O.2       1 <1>        -0.4448
      2 C2         -0.2394   -6.2929    0.4313 C.2       1 <1>         0.1123
      3 C3          0.0707   -6.5557   -0.9782 C.ar      1 <1>         0.0643
      4 C4          1.0932   -7.4498   -1.3318 C.ar      1 <1>        -0.0008
      5 O5          1.8011   -8.0929   -0.3704 O.3       1 <1>        -0.4188
      6 C6          1.3734   -7.6705   -2.6689 C.ar      1 <1>        -0.0189
      7 C7          0.6440   -7.0117   -3.6506 C.ar      1 <1>        -0.0123
      8 O8          0.9275   -7.2320   -4.9590 O.3       1 <1>        -0.4242
      9 C9         -0.3731   -6.1301   -3.3066 C.ar      1 <1>        -0.0073
     10 C10        -0.6712   -5.8964   -1.9761 C.ar      1 <1>         0.0381
     11 O11        -1.6716   -5.0457   -1.6467 O.3       1 <1>        -0.3731
     12 C12        -1.6628   -4.4474   -0.3508 C.3       1 <1>         0.0897
     13 H13        -0.8198   -3.7607   -0.2729 H         1 <1>         0.1573
     14 C14        -2.9488   -3.6913   -0.1372 C.ar      1 <1>        -0.0548
     15 C15        -4.1453   -4.2265   -0.5774 C.ar      1 <1>        -0.0753
     16 C16        -5.3255   -3.5355   -0.3828 C.ar      1 <1>        -0.0623
     17 C17        -5.3096   -2.3038    0.2554 C.ar      1 <1>        -0.0406
     18 O18        -6.4694   -1.6221    0.4484 O.3       1 <1>        -0.4398
     19 C19        -4.1078   -1.7692    0.6966 C.ar      1 <1>        -0.0688
     20 C20        -2.9309   -2.4664    0.5038 C.ar      1 <1>        -0.0853
     21 C21        -1.5331   -5.5506    0.7152 C.3       1 <1>         0.1052
     22 H22        -1.4914   -5.1039    1.7086 H         1 <1>         0.1455
     23 O23        -2.6459   -6.4431    0.6297 O.3       1 <1>        -0.4559
     24 H24         1.4225   -8.9420   -0.1048 H         1 <1>         0.3710
     25 H25         2.1600   -8.3552   -2.9493 H         1 <1>         0.1388
     26 H26         0.4282   -7.9607   -5.3524 H         1 <1>         0.3676
     27 H27        -0.9329   -5.6256   -4.0802 H         1 <1>         0.1445
     28 H28        -4.1571   -5.1854   -1.0742 H         1 <1>         0.1457
     29 H29        -6.2598   -3.9536   -0.7275 H         1 <1>         0.1255
     30 H30        -6.9118   -1.8272    1.2835 H         1 <1>         0.3541
     31 H31        -4.0929   -0.8103    1.1934 H         1 <1>         0.1237
     32 H32        -1.9951   -2.0508    0.8474 H         1 <1>         0.1280
     33 H33        -2.6239   -7.1623    1.2759 H         1 <1>         0.3419
@<TRIPOS>BOND
     1    1    2 2
     2    2   21 1
     3    2    3 1
     4    3   10 ar
     5    3    4 ar
     6    4    5 1
     7    4    6 ar
     8    5   24 1
     9    6    7 ar
    10    6   25 1
    11    7    8 1
    12    7    9 ar
    13    8   26 1
    14    9   10 ar
    15    9   27 1
    16   10   11 1
    17   11   12 1
    18   12   13 1
    19   12   14 1
    20   12   21 1
    21   14   20 ar
    22   14   15 ar
    23   15   16 ar
    24   15   28 1
    25   16   17 ar
    26   16   29 1
    27   17   18 1
    28   17   19 ar
    29   18   30 1
    30   19   20 ar
    31   19   31 1
    32   20   32 1
    33   21   22 1
    34   21   23 1
    35   23   33 1
@<TRIPOS>Similarity
1.0648
@<TRIPOS>ShapeSim
0.7891
@<TRIPOS>PharmSim
0.2758
# END
# Name:		COC1=CC2=C(C(=C1)OC)C(=O)C(=C(O2)C3=CC=CC=C3)OC
# Created and modified by SHAFTS on Thu Mar 11 04:22:19 2021

# 

@<TRIPOS>MOLECULE
COC1=CC2=C(C(=C1)OC)C(=O)C(=C(O2)C3=CC=CC=C3)OC
   39    41     0
SMALL
USER_CHARGE


@<TRIPOS>ATOM
      1 C1          2.6874   -7.7973   -5.2289 C.3       1 <1>         0.0309
      2 O2          1.7097   -6.7917   -4.9552 O.3       1 <1>        -0.4041
      3 C3          1.0971   -6.8410   -3.7447 C.ar      1 <1>         0.0073
      4 C4          1.4405   -7.8393   -2.8395 C.ar      1 <1>        -0.0214
      5 C5          0.8236   -7.8988   -1.6038 C.ar      1 <1>         0.0272
      6 O6          1.1578   -8.8721   -0.7189 O.3       1 <1>        -0.3940
      7 C7          2.1582   -9.8063   -1.1293 C.3       1 <1>         0.0358
      8 C8         -0.1490   -6.9466   -1.2716 C.ar      1 <1>         0.0856
      9 C9         -0.8296   -6.9731    0.0325 C.2       1 <1>         0.1353
     10 O10        -0.5690   -7.8249    0.8667 O.2       1 <1>        -0.4486
     11 C11        -1.8016   -5.9677    0.2828 C.2       1 <1>         0.1210
     12 O12        -2.4662   -5.9365    1.4695 O.3       1 <1>        -0.4182
     13 C13        -3.3456   -7.0275    1.7494 C.3       1 <1>         0.0179
     14 C14        -2.0623   -5.0354   -0.6745 C.2       1 <1>         0.0980
     15 C15        -3.0749   -3.9978   -0.3985 C.ar      1 <1>        -0.0177
     16 C16        -3.0498   -3.2963    0.8092 C.ar      1 <1>        -0.0710
     17 C17        -3.9994   -2.3280    1.0604 C.ar      1 <1>        -0.0932
     18 C18        -4.9755   -2.0510    0.1195 C.ar      1 <1>        -0.1017
     19 C19        -5.0068   -2.7422   -1.0789 C.ar      1 <1>        -0.0987
     20 C20        -4.0595   -3.7085   -1.3463 C.ar      1 <1>        -0.0784
     21 O21        -1.4315   -5.0244   -1.8611 O.3       1 <1>        -0.3171
     22 C22        -0.4944   -5.9382   -2.1890 C.ar      1 <1>         0.0666
     23 C23         0.1395   -5.8923   -3.4211 C.ar      1 <1>         0.0027
     24 H24         3.4885   -7.7352   -4.4925 H         1 <1>         0.0918
     25 H25         2.2211   -8.7812   -5.1765 H         1 <1>         0.0918
     26 H26         3.0982   -7.6427   -6.2267 H         1 <1>         0.1280
     27 H27         2.1910   -8.5701   -3.1026 H         1 <1>         0.1154
     28 H28         3.0852   -9.2749   -1.3442 H         1 <1>         0.0931
     29 H29         2.3300  -10.5286   -0.3313 H         1 <1>         0.1293
     30 H30         1.8223  -10.3279   -2.0255 H         1 <1>         0.0931
     31 H31        -3.8784   -6.8350    2.6806 H         1 <1>         0.1208
     32 H32        -4.0630   -7.1341    0.9357 H         1 <1>         0.0774
     33 H33        -2.7662   -7.9458    1.8455 H         1 <1>         0.0918
     34 H34        -2.2890   -3.5121    1.5448 H         1 <1>         0.1455
     35 H35        -3.9813   -1.7850    1.9937 H         1 <1>         0.1228
     36 H36        -5.7168   -1.2921    0.3215 H         1 <1>         0.1241
     37 H37        -5.7718   -2.5214   -1.8084 H         1 <1>         0.1194
     38 H38        -4.0848   -4.2469   -2.2822 H         1 <1>         0.1324
     39 H39        -0.1152   -5.1190   -4.1306 H         1 <1>         0.1491
@<TRIPOS>BOND
     1    1    2 1
     2    1   24 1
     3    1   25 1
     4    1   26 1
     5    2    3 1
     6    3   23 ar
     7    3    4 ar
     8    4    5 ar
     9    4   27 1
    10    5    6 1
    11    5    8 ar
    12    6    7 1
    13    7   28 1
    14    7   29 1
    15    7   30 1
    16    8   22 ar
    17    8    9 1
    18    9   10 2
    19    9   11 1
    20   11   12 1
    21   11   14 2
    22   12   13 1
    23   13   31 1
    24   13   32 1
    25   13   33 1
    26   14   15 1
    27   14   21 1
    28   15   20 ar
    29   15   16 ar
    30   16   17 ar
    31   16   34 1
    32   17   18 ar
    33   17   35 1
    34   18   19 ar
    35   18   36 1
    36   19   20 ar
    37   19   37 1
    38   20   38 1
    39   21   22 1
    40   22   23 ar
    41   23   39 1
@<TRIPOS>Similarity
1.0627
@<TRIPOS>ShapeSim
0.7386
@<TRIPOS>PharmSim
0.3242
# END
# Name:		CC(=CCC1=C(C=CC(=C1O)C2=COC3=CC(=CC(=C3C2=O)O)O)O)C
# Created and modified by SHAFTS on Thu Mar 11 04:22:19 2021

# 

@<TRIPOS>MOLECULE
CC(=CCC1=C(C=CC(=C1O)C2=COC3=CC(=CC(=C3C2=O)O)O)O)C
   43    45     0
SMALL
USER_CHARGE


@<TRIPOS>ATOM
      1 C1         -8.4932   -2.6958    2.3208 C.3       1 <1>        -0.0593
      2 C2         -7.3808   -3.4760    2.9726 C.2       1 <1>        -0.1584
      3 C3         -7.2749   -3.5254    4.4751 C.3       1 <1>        -0.0608
      4 C4         -6.5056   -4.1113    2.2331 C.2       1 <1>        -0.1356
      5 C5         -6.5405   -3.9673    0.7334 C.3       1 <1>        -0.0208
      6 C6         -5.1817   -3.5438    0.2378 C.ar      1 <1>        -0.0345
      7 C7         -4.8708   -2.1962    0.1332 C.ar      1 <1>        -0.0291
      8 O8         -5.7929   -1.2594    0.4781 O.3       1 <1>        -0.4345
      9 C9         -3.6199   -1.8015   -0.3226 C.ar      1 <1>        -0.0621
     10 C10        -2.6799   -2.7478   -0.6747 C.ar      1 <1>        -0.0729
     11 C11        -2.9846   -4.1033   -0.5729 C.ar      1 <1>        -0.0319
     12 C12        -1.9756   -5.1229   -0.9503 C.2       1 <1>         0.0328
     13 C13        -1.3123   -5.8335   -0.0025 C.2       1 <1>         0.0465
     14 O14        -0.4097   -6.7711   -0.2941 O.3       1 <1>        -0.3512
     15 C15         0.1357   -6.8591   -1.5222 C.ar      1 <1>         0.0248
     16 C16         1.2897   -7.6027   -1.7274 C.ar      1 <1>        -0.0310
     17 C17         1.8398   -7.6978   -2.9957 C.ar      1 <1>        -0.0636
     18 O18         2.9694   -8.4266   -3.1839 O.3       1 <1>        -0.5676
     19 C19         1.2480   -7.0558   -4.0781 C.ar      1 <1>        -0.0359
     20 C20         0.0996   -6.3072   -3.8958 C.ar      1 <1>        -0.0239
     21 O21        -0.4839   -5.6818   -4.9494 O.3       1 <1>        -0.4294
     22 C22        -0.4560   -6.2001   -2.6154 C.ar      1 <1>         0.0378
     23 C23        -1.6678   -5.3985   -2.3677 C.2       1 <1>         0.0765
     24 O24        -2.3689   -4.9866   -3.2762 O.2       1 <1>        -0.4794
     25 C25        -4.2422   -4.5001   -0.1076 C.ar      1 <1>        -0.0111
     26 O26        -4.5452   -5.8208   -0.0057 O.3       1 <1>        -0.4263
     27 H27        -9.1671   -2.3140    3.0878 H         1 <1>         0.0442
     28 H28        -8.0717   -1.8618    1.7596 H         1 <1>         0.0513
     29 H29        -9.0455   -3.3473    1.6436 H         1 <1>         0.0442
     30 H30        -7.8451   -4.3746    4.8517 H         1 <1>         0.0438
     31 H31        -6.2291   -3.6338    4.7623 H         1 <1>         0.0438
     32 H32        -7.6742   -2.6035    4.8979 H         1 <1>         0.0438
     33 H33        -5.7593   -4.7382    2.6982 H         1 <1>         0.0913
     34 H34        -6.8102   -4.9224    0.2828 H         1 <1>         0.0843
     35 H35        -7.2787   -3.2141    0.4578 H         1 <1>         0.0843
     36 H36        -5.7554   -0.9941    1.4073 H         1 <1>         0.3570
     37 H37        -3.3825   -0.7509   -0.4019 H         1 <1>         0.1249
     38 H38        -1.7081   -2.4377   -1.0295 H         1 <1>         0.1355
     39 H39        -1.5254   -5.6297    1.0365 H         1 <1>         0.2362
     40 H40         1.7599   -8.1079   -0.8967 H         1 <1>         0.1019
     41 H41         1.6859   -7.1415   -5.0616 H         1 <1>         0.1029
     42 H42        -1.1449   -6.2180   -5.4081 H         1 <1>         0.3593
     43 H43        -4.3245   -6.2099    0.8516 H         1 <1>         0.3522
@<TRIPOS>BOND
     1    1    2 1
     2    1   27 1
     3    1   28 1
     4    1   29 1
     5    2    3 1
     6    2    4 2
     7    3   30 1
     8    3   31 1
     9    3   32 1
    10    4    5 1
    11    4   33 1
    12    5    6 1
    13    5   34 1
    14    5   35 1
    15    6   25 ar
    16    6    7 ar
    17    7    8 1
    18    7    9 ar
    19    8   36 1
    20    9   10 ar
    21    9   37 1
    22   10   11 ar
    23   10   38 1
    24   11   12 1
    25   11   25 ar
    26   12   23 1
    27   12   13 2
    28   13   14 1
    29   13   39 1
    30   14   15 1
    31   15   22 ar
    32   15   16 ar
    33   16   17 ar
    34   16   40 1
    35   17   18 1
    36   17   19 ar
    37   19   20 ar
    38   19   41 1
    39   20   21 1
    40   20   22 ar
    41   21   42 1
    42   22   23 1
    43   23   24 2
    44   25   26 1
    45   26   43 1
@<TRIPOS>Similarity
1.0625
@<TRIPOS>ShapeSim
0.7192
@<TRIPOS>PharmSim
0.3433
# END
# Name:		C1=CC(=C(C=C1C=CC(=O)C2=C(C=C(C=C2)O)O)O)O
# Created and modified by SHAFTS on Thu Mar 11 04:22:19 2021

# 

@<TRIPOS>MOLECULE
C1=CC(=C(C=C1C=CC(=O)C2=C(C=C(C=C2)O)O)O)O
   31    32     0
SMALL
USER_CHARGE


@<TRIPOS>ATOM
      1 O1         -1.2290   -4.6083   -2.0394 O.2       1 <1>        -0.4537
      2 C2         -2.3270   -4.9610   -1.6470 C.2       1 <1>         0.0795
      3 C3         -2.8236   -6.2976   -1.9690 C.2       1 <1>        -0.0195
      4 C4         -2.0167   -7.1873   -2.5884 C.2       1 <1>        -0.0741
      5 C5         -0.5785   -6.9130   -2.7116 C.ar      1 <1>        -0.0689
      6 C6          0.1481   -6.4649   -1.6024 C.ar      1 <1>        -0.0709
      7 C7          1.4966   -6.2090   -1.7206 C.ar      1 <1>        -0.0528
      8 C8          2.1380   -6.3943   -2.9380 C.ar      1 <1>        -0.0077
      9 O9          3.4677   -6.1403   -3.0483 O.3       1 <1>        -0.4340
     10 C10         1.4210   -6.8411   -4.0480 C.ar      1 <1>        -0.0074
     11 O11         2.0537   -7.0216   -5.2382 O.3       1 <1>        -0.4349
     12 C12         0.0706   -7.1047   -3.9376 C.ar      1 <1>        -0.0514
     13 C13        -3.1524   -4.0419   -0.8422 C.ar      1 <1>         0.0052
     14 C14        -4.4106   -4.4459   -0.3855 C.ar      1 <1>        -0.1033
     15 C15        -5.1778   -3.5855    0.3656 C.ar      1 <1>        -0.1002
     16 C16        -4.7061   -2.3129    0.6734 C.ar      1 <1>        -0.0622
     17 O17        -5.4693   -1.4705    1.4149 O.3       1 <1>        -0.4479
     18 C18        -3.4589   -1.9020    0.2257 C.ar      1 <1>        -0.0492
     19 C19        -2.6758   -2.7599   -0.5265 C.ar      1 <1>        -0.0576
     20 O20        -1.4556   -2.3601   -0.9648 O.3       1 <1>        -0.5560
     21 H21        -3.8355   -6.5742   -1.7118 H         1 <1>         0.1282
     22 H22        -2.4290   -8.0999   -2.9929 H         1 <1>         0.1320
     23 H23        -0.3482   -6.3195   -0.6543 H         1 <1>         0.1359
     24 H24         2.0562   -5.8629   -0.8642 H         1 <1>         0.1301
     25 H25         4.0308   -6.9032   -2.8589 H         1 <1>         0.3480
     26 H26         2.4149   -7.9102   -5.3609 H         1 <1>         0.3478
     27 H27        -0.4854   -7.4511   -4.7962 H         1 <1>         0.1323
     28 H28        -4.7803   -5.4326   -0.6225 H         1 <1>         0.1126
     29 H29        -6.1497   -3.8988    0.7174 H         1 <1>         0.0697
     30 H30        -5.3213   -1.5416    2.3679 H         1 <1>         0.3434
     31 H31        -3.0974   -0.9134    0.4672 H         1 <1>         0.0869
@<TRIPOS>BOND
     1    1    2 2
     2    2    3 1
     3    2   13 1
     4    3    4 2
     5    3   21 1
     6    4    5 1
     7    4   22 1
     8    5   12 ar
     9    5    6 ar
    10    6    7 ar
    11    6   23 1
    12    7    8 ar
    13    7   24 1
    14    8    9 1
    15    8   10 ar
    16    9   25 1
    17   10   11 1
    18   10   12 ar
    19   11   26 1
    20   12   27 1
    21   13   19 ar
    22   13   14 ar
    23   14   15 ar
    24   14   28 1
    25   15   16 ar
    26   15   29 1
    27   16   17 1
    28   16   18 ar
    29   17   30 1
    30   18   19 ar
    31   18   31 1
    32   19   20 1
@<TRIPOS>Similarity
1.0615
@<TRIPOS>ShapeSim
0.6580
@<TRIPOS>PharmSim
0.4035
# END
# Name:		CC1(C=CC2=C(C=CC(=C2O1)C3=COC4=CC(=CC(=C4C3=O)O)O)O)C
# Created and modified by SHAFTS on Thu Mar 11 04:22:19 2021

# 

@<TRIPOS>MOLECULE
CC1(C=CC2=C(C=CC(=C2O1)C3=COC4=CC(=CC(=C4C3=O)O)O)O)C
   41    44     0
SMALL
USER_CHARGE


@<TRIPOS>ATOM
      1 C1         -4.6867   -6.0853    2.3970 C.3       1 <1>        -0.0330
      2 C2         -5.4451   -6.1775    1.0713 C.3       1 <1>         0.0182
      3 C3         -5.9288   -7.6144    0.8657 C.3       1 <1>        -0.0269
      4 C4         -6.6346   -5.2550    1.1142 C.2       1 <1>        -0.0940
      5 C5         -6.5094   -3.9883    0.7229 C.2       1 <1>        -0.0900
      6 C6         -5.1867   -3.5368    0.2410 C.ar      1 <1>        -0.0148
      7 C7         -4.8734   -2.1812    0.1356 C.ar      1 <1>        -0.0244
      8 O8         -5.7906   -1.2400    0.4793 O.3       1 <1>        -0.4312
      9 C9         -3.6198   -1.7989   -0.3216 C.ar      1 <1>        -0.0590
     10 C10        -2.6840   -2.7514   -0.6722 C.ar      1 <1>        -0.0667
     11 C11        -2.9856   -4.1099   -0.5712 C.ar      1 <1>        -0.0167
     12 C12        -1.9751   -5.1277   -0.9496 C.2       1 <1>         0.0364
     13 C13        -1.3104   -5.8377   -0.0024 C.2       1 <1>         0.0495
     14 O14        -0.4071   -6.7744   -0.2948 O.3       1 <1>        -0.3476
     15 C15         0.1377   -6.8615   -1.5233 C.ar      1 <1>         0.0276
     16 C16         1.2921   -7.6040   -1.7294 C.ar      1 <1>        -0.0297
     17 C17         1.8419   -7.6978   -2.9979 C.ar      1 <1>        -0.0658
     18 O18         2.9721   -8.4256   -3.1870 O.3       1 <1>        -0.5744
     19 C19         1.2493   -7.0555   -4.0797 C.ar      1 <1>        -0.0380
     20 C20         0.1005   -6.3076   -3.8964 C.ar      1 <1>        -0.0239
     21 O21        -0.4837   -5.6819   -4.9493 O.3       1 <1>        -0.4294
     22 C22        -0.4549   -6.2023   -2.6158 C.ar      1 <1>         0.0390
     23 C23        -1.6676   -5.4022   -2.3673 C.2       1 <1>         0.0746
     24 O24        -2.3691   -4.9899   -3.2752 O.2       1 <1>        -0.4853
     25 C25        -4.2400   -4.5058   -0.1124 C.ar      1 <1>         0.0310
     26 O26        -4.5697   -5.8175    0.0017 O.3       1 <1>        -0.3932
     27 H27        -4.3325   -5.0648    2.5427 H         1 <1>         0.0421
     28 H28        -5.3518   -6.3595    3.2159 H         1 <1>         0.0493
     29 H29        -3.8356   -6.7659    2.3768 H         1 <1>         0.0493
     30 H30        -6.5902   -7.8959    1.6852 H         1 <1>         0.0636
     31 H31        -6.4698   -7.6841   -0.0780 H         1 <1>         0.0564
     32 H32        -5.0713   -8.2868    0.8435 H         1 <1>         0.0564
     33 H33        -7.5892   -5.6205    1.4629 H         1 <1>         0.1102
     34 H34        -7.3497   -3.3106    0.7561 H         1 <1>         0.1270
     35 H35        -5.7517   -0.9735    1.4080 H         1 <1>         0.3579
     36 H36        -3.3751   -0.7503   -0.4040 H         1 <1>         0.1220
     37 H37        -1.7119   -2.4428   -1.0273 H         1 <1>         0.1475
     38 H38        -1.5228   -5.6342    1.0368 H         1 <1>         0.2390
     39 H39         1.7632   -8.1095   -0.8993 H         1 <1>         0.1024
     40 H40         1.6866   -7.1405   -5.0635 H         1 <1>         0.0953
     41 H41        -1.1449   -6.2182   -5.4080 H         1 <1>         0.3593
@<TRIPOS>BOND
     1    1    2 1
     2    1   27 1
     3    1   28 1
     4    1   29 1
     5    2   26 1
     6    2    3 1
     7    2    4 1
     8    3   30 1
     9    3   31 1
    10    3   32 1
    11    4    5 2
    12    4   33 1
    13    5    6 1
    14    5   34 1
    15    6   25 ar
    16    6    7 ar
    17    7    8 1
    18    7    9 ar
    19    8   35 1
    20    9   10 ar
    21    9   36 1
    22   10   11 ar
    23   10   37 1
    24   11   12 1
    25   11   25 ar
    26   12   23 1
    27   12   13 2
    28   13   14 1
    29   13   38 1
    30   14   15 1
    31   15   22 ar
    32   15   16 ar
    33   16   17 ar
    34   16   39 1
    35   17   18 1
    36   17   19 ar
    37   19   20 ar
    38   19   40 1
    39   20   21 1
    40   20   22 ar
    41   21   41 1
    42   22   23 1
    43   23   24 2
    44   25   26 1
@<TRIPOS>Similarity
1.0614
@<TRIPOS>ShapeSim
0.7146
@<TRIPOS>PharmSim
0.3469
# END
# Name:		COC1=C(C=C(C=C1)[C@@H]2CC(=O)C3=C(C=C(C=C3O2)O)O)O
# Created and modified by SHAFTS on Thu Mar 11 04:22:19 2021

# 

@<TRIPOS>MOLECULE
COC1=C(C=C(C=C1)[C@@H]2CC(=O)C3=C(C=C(C=C3O2)O)O)O
   36    38     0
SMALL
USER_CHARGE


@<TRIPOS>ATOM
      1 C1         -7.6739   -2.2408   -0.0349 C.3       1 <1>         0.0246
      2 O2         -6.4766   -1.6275    0.4475 O.3       1 <1>        -0.4106
      3 C3         -5.3144   -2.3070    0.2558 C.ar      1 <1>         0.0230
      4 C4         -5.3255   -3.5338   -0.3874 C.ar      1 <1>        -0.0595
      5 C5         -4.1426   -4.2232   -0.5820 C.ar      1 <1>        -0.0891
      6 C6         -2.9477   -3.6914   -0.1355 C.ar      1 <1>        -0.0623
      7 C7         -1.6617   -4.4471   -0.3498 C.3       1 <1>         0.0616
      8 H8         -0.8189   -3.7604   -0.2716 H         1 <1>         0.1394
      9 C9         -1.5288   -5.5450    0.7157 C.3       1 <1>         0.0704
     10 C10        -0.2386   -6.2930    0.4318 C.2       1 <1>         0.0894
     11 O11         0.4991   -6.6545    1.3253 O.2       1 <1>        -0.4489
     12 C12         0.0712   -6.5558   -0.9779 C.ar      1 <1>         0.0593
     13 C13         1.0934   -7.4500   -1.3319 C.ar      1 <1>        -0.0007
     14 O14         1.8015   -8.0932   -0.3706 O.3       1 <1>        -0.4187
     15 C15         1.3731   -7.6707   -2.6688 C.ar      1 <1>        -0.0189
     16 C16         0.6438   -7.0115   -3.6505 C.ar      1 <1>        -0.0128
     17 O17         0.9272   -7.2314   -4.9589 O.3       1 <1>        -0.4242
     18 C18        -0.3731   -6.1297   -3.3061 C.ar      1 <1>        -0.0094
     19 C19        -0.6709   -5.8963   -1.9754 C.ar      1 <1>         0.0329
     20 O20        -1.6706   -5.0446   -1.6462 O.3       1 <1>        -0.3865
     21 C21        -2.9295   -2.4669    0.5070 C.ar      1 <1>        -0.0466
     22 C22        -4.1102   -1.7687    0.7004 C.ar      1 <1>         0.0118
     23 O23        -4.0941   -0.5644    1.3320 O.3       1 <1>        -0.4252
     24 H24        -8.5253   -1.5957    0.1818 H         1 <1>         0.1195
     25 H25        -7.5967   -2.3911   -1.1117 H         1 <1>         0.0905
     26 H26        -7.8127   -3.2034    0.4573 H         1 <1>         0.0905
     27 H27        -6.2580   -3.9519   -0.7367 H         1 <1>         0.1212
     28 H28        -4.1527   -5.1796   -1.0837 H         1 <1>         0.1326
     29 H29        -1.4868   -5.0958    1.7081 H         1 <1>         0.1103
     30 H30        -2.3757   -6.2283    0.6522 H         1 <1>         0.1103
     31 H31         1.4227   -8.9423   -0.1049 H         1 <1>         0.3710
     32 H32         2.1592   -8.3559   -2.9496 H         1 <1>         0.1388
     33 H33         0.4276   -7.9598   -5.3525 H         1 <1>         0.3676
     34 H34        -0.9326   -5.6247   -4.0796 H         1 <1>         0.1440
     35 H35        -1.9944   -2.0535    0.8549 H         1 <1>         0.1452
     36 H36        -3.9766    0.1896    0.7382 H         1 <1>         0.3595
@<TRIPOS>BOND
     1    1    2 1
     2    1   24 1
     3    1   25 1
     4    1   26 1
     5    2    3 1
     6    3   22 ar
     7    3    4 ar
     8    4    5 ar
     9    4   27 1
    10    5    6 ar
    11    5   28 1
    12    6    7 1
    13    6   21 ar
    14    7    8 1
    15    7   20 1
    16    7    9 1
    17    9   10 1
    18    9   29 1
    19    9   30 1
    20   10   11 2
    21   10   12 1
    22   12   19 ar
    23   12   13 ar
    24   13   14 1
    25   13   15 ar
    26   14   31 1
    27   15   16 ar
    28   15   32 1
    29   16   17 1
    30   16   18 ar
    31   17   33 1
    32   18   19 ar
    33   18   34 1
    34   19   20 1
    35   21   22 ar
    36   21   35 1
    37   22   23 1
    38   23   36 1
@<TRIPOS>Similarity
1.0535
@<TRIPOS>ShapeSim
0.7707
@<TRIPOS>PharmSim
0.2828
# END
# Name:		COC1=C(C=C(C=C1)[C@@H]2CC(=O)C3=C(C=C(C=C3O2)O)O)O
# Created and modified by SHAFTS on Thu Mar 11 04:22:19 2021

# 

@<TRIPOS>MOLECULE
COC1=C(C=C(C=C1)[C@@H]2CC(=O)C3=C(C=C(C=C3O2)O)O)O
   36    38     0
SMALL
USER_CHARGE


@<TRIPOS>ATOM
      1 C1         -7.6739   -2.2408   -0.0349 C.3       1 <1>         0.0246
      2 O2         -6.4766   -1.6275    0.4475 O.3       1 <1>        -0.4106
      3 C3         -5.3144   -2.3070    0.2558 C.ar      1 <1>         0.0230
      4 C4         -5.3255   -3.5338   -0.3874 C.ar      1 <1>        -0.0595
      5 C5         -4.1426   -4.2232   -0.5820 C.ar      1 <1>        -0.0891
      6 C6         -2.9477   -3.6914   -0.1355 C.ar      1 <1>        -0.0623
      7 C7         -1.6617   -4.4471   -0.3498 C.3       1 <1>         0.0616
      8 H8         -0.8189   -3.7604   -0.2716 H         1 <1>         0.1394
      9 C9         -1.5288   -5.5450    0.7157 C.3       1 <1>         0.0704
     10 C10        -0.2386   -6.2930    0.4318 C.2       1 <1>         0.0894
     11 O11         0.4991   -6.6545    1.3253 O.2       1 <1>        -0.4489
     12 C12         0.0712   -6.5558   -0.9779 C.ar      1 <1>         0.0593
     13 C13         1.0934   -7.4500   -1.3319 C.ar      1 <1>        -0.0007
     14 O14         1.8015   -8.0932   -0.3706 O.3       1 <1>        -0.4187
     15 C15         1.3731   -7.6707   -2.6688 C.ar      1 <1>        -0.0189
     16 C16         0.6438   -7.0115   -3.6505 C.ar      1 <1>        -0.0128
     17 O17         0.9272   -7.2314   -4.9589 O.3       1 <1>        -0.4242
     18 C18        -0.3731   -6.1297   -3.3061 C.ar      1 <1>        -0.0094
     19 C19        -0.6709   -5.8963   -1.9754 C.ar      1 <1>         0.0329
     20 O20        -1.6706   -5.0446   -1.6462 O.3       1 <1>        -0.3865
     21 C21        -2.9295   -2.4669    0.5070 C.ar      1 <1>        -0.0466
     22 C22        -4.1102   -1.7687    0.7004 C.ar      1 <1>         0.0118
     23 O23        -4.0941   -0.5644    1.3320 O.3       1 <1>        -0.4252
     24 H24        -8.5253   -1.5957    0.1818 H         1 <1>         0.1195
     25 H25        -7.5967   -2.3911   -1.1117 H         1 <1>         0.0905
     26 H26        -7.8127   -3.2034    0.4573 H         1 <1>         0.0905
     27 H27        -6.2580   -3.9519   -0.7367 H         1 <1>         0.1212
     28 H28        -4.1527   -5.1796   -1.0837 H         1 <1>         0.1326
     29 H29        -1.4868   -5.0958    1.7081 H         1 <1>         0.1103
     30 H30        -2.3757   -6.2283    0.6522 H         1 <1>         0.1103
     31 H31         1.4227   -8.9423   -0.1049 H         1 <1>         0.3710
     32 H32         2.1592   -8.3559   -2.9496 H         1 <1>         0.1388
     33 H33         0.4276   -7.9598   -5.3525 H         1 <1>         0.3676
     34 H34        -0.9326   -5.6247   -4.0796 H         1 <1>         0.1440
     35 H35        -1.9944   -2.0535    0.8549 H         1 <1>         0.1452
     36 H36        -3.9766    0.1896    0.7382 H         1 <1>         0.3595
@<TRIPOS>BOND
     1    1    2 1
     2    1   24 1
     3    1   25 1
     4    1   26 1
     5    2    3 1
     6    3   22 ar
     7    3    4 ar
     8    4    5 ar
     9    4   27 1
    10    5    6 ar
    11    5   28 1
    12    6    7 1
    13    6   21 ar
    14    7    8 1
    15    7   20 1
    16    7    9 1
    17    9   10 1
    18    9   29 1
    19    9   30 1
    20   10   11 2
    21   10   12 1
    22   12   19 ar
    23   12   13 ar
    24   13   14 1
    25   13   15 ar
    26   14   31 1
    27   15   16 ar
    28   15   32 1
    29   16   17 1
    30   16   18 ar
    31   17   33 1
    32   18   19 ar
    33   18   34 1
    34   19   20 1
    35   21   22 ar
    36   21   35 1
    37   22   23 1
    38   23   36 1
@<TRIPOS>Similarity
1.0535
@<TRIPOS>ShapeSim
0.7707
@<TRIPOS>PharmSim
0.2828
# END
# Name:		NC(C(S1)=CC2=C1C(N3CCC(CCNS(=O)(C)=O)CC3)=NC=N2)=O
# Created and modified by SHAFTS on Thu Mar 11 04:22:19 2021

# 

@<TRIPOS>MOLECULE
NC(C(S1)=CC2=C1C(N3CCC(CCNS(=O)(C)=O)CC3)=NC=N2)=O
   46    48     0
SMALL
USER_CHARGE


@<TRIPOS>ATOM
      1 C1         -6.8460   -1.1440    4.0160 C.3       1 <1>         0.2535
      2 S2         -7.7447   -2.1493    2.8027 S.o2      1 <1>        -0.0770
      3 O3         -7.7832   -3.5094    3.2127 O.2       1 <1>        -0.1000
      4 O4         -8.9227   -1.4795    2.3747 O.2       1 <1>        -0.1000
      5 N5         -6.7685   -2.1534    1.4651 N.am      1 <1>        -0.1810
      6 C6         -5.4513   -2.7920    1.5217 C.3       1 <1>         0.0090
      7 C7         -4.9193   -2.9905    0.1009 C.3       1 <1>        -0.0484
      8 C8         -3.5436   -3.6576    0.1598 C.3       1 <1>        -0.0631
      9 C9         -3.6842   -5.0706    0.7329 C.3       1 <1>        -0.0744
     10 C10        -2.3151   -5.7543    0.7327 C.3       1 <1>        -0.1499
     11 N11        -1.7958   -5.8127   -0.6396 N.3       1 <1>         0.3880
     12 C12        -0.6195   -6.5404   -0.6944 C.ar      1 <1>        -0.1214
     13 C13         0.0564   -6.7192   -1.9177 C.ar      1 <1>         0.0444
     14 S14        -0.3099   -6.1619   -3.5436 S.3       1 <1>        -0.0577
     15 C15         1.1292   -6.9368   -4.1844 C.2       1 <1>         0.1018
     16 C16         1.5376   -6.9086   -5.5993 C.2       1 <1>         0.1083
     17 N17         0.7845   -6.2537   -6.5051 N.am      1 <1>        -0.3388
     18 O18         2.5543   -7.4760   -5.9502 O.2       1 <1>        -0.4673
     19 C19         1.8042   -7.5573   -3.2079 C.2       1 <1>        -0.0008
     20 C20         1.2411   -7.4608   -1.9298 C.ar      1 <1>         0.0033
     21 N21         1.6775   -7.9712   -0.7539 N.ar      1 <1>        -0.3568
     22 C22         1.0136   -7.7772    0.3563 C.ar      1 <1>         0.0378
     23 N23        -0.1065   -7.0767    0.4042 N.ar      1 <1>        -0.3741
     24 C24        -1.6077   -4.4660   -1.1939 C.3       1 <1>        -0.1504
     25 C25        -2.9557   -3.7437   -1.2514 C.3       1 <1>        -0.0736
     26 H26        -5.8777   -1.6007    4.2204 H         1 <1>         0.1709
     27 H27        -6.6975   -0.1403    3.6175 H         1 <1>         0.1709
     28 H28        -7.4228   -1.0867    4.9391 H         1 <1>         0.1709
     29 H29        -7.0688   -1.7329    0.6442 H         1 <1>         0.3392
     30 H30        -4.7638   -2.1582    2.0817 H         1 <1>         0.0830
     31 H31        -5.5376   -3.7598    2.0158 H         1 <1>         0.0974
     32 H32        -5.6067   -3.6245   -0.4593 H         1 <1>         0.0627
     33 H33        -4.8330   -2.0228   -0.3933 H         1 <1>         0.0555
     34 H34        -2.8809   -3.0701    0.7953 H         1 <1>         0.0590
     35 H35        -4.0623   -5.0133    1.7536 H         1 <1>         0.0592
     36 H36        -4.3779   -5.6449    0.1188 H         1 <1>         0.0592
     37 H37        -1.6257   -5.1870    1.3581 H         1 <1>         0.0440
     38 H38        -2.4142   -6.7658    1.1269 H         1 <1>         0.0655
     39 H39        -0.0265   -5.8011   -6.2253 H         1 <1>         0.2746
     40 H40         1.0534   -6.2351   -7.4370 H         1 <1>         0.2825
     41 H41         2.7216   -8.0960   -3.3942 H         1 <1>         0.1843
     42 H42         1.3985   -8.2027    1.2714 H         1 <1>         0.3047
     43 H43        -0.9217   -3.9047   -0.5596 H         1 <1>         0.0440
     44 H44        -1.1932   -4.5416   -2.1992 H         1 <1>         0.0584
     45 H45        -3.6380   -4.2972   -1.8966 H         1 <1>         0.0614
     46 H46        -2.8135   -2.7386   -1.6482 H         1 <1>         0.0614
@<TRIPOS>BOND
     1    1    2 1
     2    1   26 1
     3    1   27 1
     4    1   28 1
     5    2    3 2
     6    2    4 2
     7    2    5 am
     8    5    6 1
     9    5   29 1
    10    6    7 1
    11    6   30 1
    12    6   31 1
    13    7    8 1
    14    7   32 1
    15    7   33 1
    16    8   25 1
    17    8    9 1
    18    8   34 1
    19    9   10 1
    20    9   35 1
    21    9   36 1
    22   10   11 1
    23   10   37 1
    24   10   38 1
    25   11   12 1
    26   11   24 1
    27   12   23 ar
    28   12   13 ar
    29   13   20 ar
    30   13   14 1
    31   14   15 1
    32   15   16 1
    33   15   19 2
    34   16   17 am
    35   16   18 2
    36   17   39 1
    37   17   40 1
    38   19   20 1
    39   19   41 1
    40   20   21 ar
    41   21   22 ar
    42   22   23 ar
    43   22   42 1
    44   24   25 1
    45   24   43 1
    46   24   44 1
    47   25   45 1
    48   25   46 1
@<TRIPOS>Similarity
1.0478
@<TRIPOS>ShapeSim
0.7229
@<TRIPOS>PharmSim
0.3249
# END
# Name:		C1=CC(=CN=C1)CNC(=O)C2=CC=C(O2)[N+](=O)[O-]
# Created and modified by SHAFTS on Thu Mar 11 04:22:19 2021

# 

@<TRIPOS>MOLECULE
C1=CC(=CN=C1)CNC(=O)C2=CC=C(O2)[N+](=O)[O-]
   27    28     0
SMALL
USER_CHARGE


@<TRIPOS>ATOM
      1 O1         -0.8837   -7.3019    0.4425 O.2       1 <1>        -0.4396
      2 C2         -0.9124   -6.5893   -0.5436 C.2       1 <1>         0.1668
      3 N3         -1.7417   -5.5276   -0.5839 N.am      1 <1>        -0.3209
      4 C4         -2.6084   -5.2313    0.5595 C.3       1 <1>         0.0016
      5 C5         -3.4296   -4.0032    0.2623 C.ar      1 <1>        -0.0547
      6 C6         -2.9527   -2.7436    0.5902 C.ar      1 <1>        -0.0828
      7 C7         -3.7424   -1.6419    0.2976 C.ar      1 <1>        -0.0679
      8 C8         -4.9699   -1.8349   -0.3069 C.ar      1 <1>        -0.0412
      9 N9         -5.3919   -3.0485   -0.6047 N.ar      1 <1>        -0.4005
     10 C10        -4.6656   -4.1180   -0.3460 C.ar      1 <1>        -0.0343
     11 C11        -0.0404   -6.8824   -1.6858 C.2       1 <1>         0.1514
     12 C12         0.8422   -7.9204   -1.7758 C.2       1 <1>        -0.0119
     13 C13         1.4599   -7.8170   -3.0319 C.2       1 <1>        -0.0070
     14 C14         0.9339   -6.7343   -3.6459 C.2       1 <1>         0.1912
     15 N15         1.2962   -6.2481   -4.9963 N.pl3     1 <1>         0.0647
     16 O16         2.1353   -6.8397   -5.6517 O.2       1 <1>        -0.1946
     17 O17         0.7554   -5.2565   -5.4520 O.2       1 <1>        -0.2000
     18 O18         0.0262   -6.1772   -2.8339 O.3       1 <1>        -0.3036
     19 H19        -1.7645   -4.9597   -1.3700 H         1 <1>         0.3121
     20 H20        -3.2718   -6.0768    0.7412 H         1 <1>         0.1264
     21 H21        -1.9958   -5.0536    1.4433 H         1 <1>         0.1264
     22 H22        -1.9889   -2.6231    1.0626 H         1 <1>         0.1425
     23 H23        -3.4026   -0.6457    0.5394 H         1 <1>         0.1274
     24 H24        -5.5912   -0.9822   -0.5377 H         1 <1>         0.2022
     25 H25        -5.0444   -5.0959   -0.6045 H         1 <1>         0.2054
     26 H26         1.0291   -8.6746   -1.0257 H         1 <1>         0.1767
     27 H27         2.2140   -8.4784   -3.4324 H         1 <1>         0.1842
@<TRIPOS>BOND
     1    1    2 2
     2    2    3 am
     3    2   11 1
     4    3    4 1
     5    3   19 1
     6    4    5 1
     7    4   20 1
     8    4   21 1
     9    5   10 ar
    10    5    6 ar
    11    6    7 ar
    12    6   22 1
    13    7    8 ar
    14    7   23 1
    15    8    9 ar
    16    8   24 1
    17    9   10 ar
    18   10   25 1
    19   11   18 1
    20   11   12 2
    21   12   13 1
    22   12   26 1
    23   13   14 2
    24   13   27 1
    25   14   15 1
    26   14   18 1
    27   15   16 2
    28   15   17 2
@<TRIPOS>Similarity
1.0470
@<TRIPOS>ShapeSim
0.7817
@<TRIPOS>PharmSim
0.2653
# END
# Name:		CC(=CCC1=C2C(=C(C=C1O)O)C(=O)C[C@H](O2)C3=CC=C(C=C3)O)C
# Created and modified by SHAFTS on Thu Mar 11 04:22:19 2021

# 

@<TRIPOS>MOLECULE
CC(=CCC1=C2C(=C(C=C1O)O)C(=O)C[C@H](O2)C3=CC=C(C=C3)O)C
   45    47     0
SMALL
USER_CHARGE


@<TRIPOS>ATOM
      1 C1          0.9473   -8.9927    1.8153 C.3       1 <1>        -0.0564
      2 C2         -0.4516   -9.0097    1.2554 C.2       1 <1>        -0.1551
      3 C3         -1.3478  -10.1958    1.5024 C.3       1 <1>        -0.0579
      4 C4         -0.8889   -7.9932    0.5540 C.2       1 <1>        -0.1328
      5 C5          0.0449   -6.8646    0.2003 C.3       1 <1>        -0.0158
      6 C6          0.0222   -6.6423   -1.2901 C.ar      1 <1>        -0.0106
      7 C7          0.9096   -7.3315   -2.1065 C.ar      1 <1>        -0.0071
      8 O8          1.7915   -8.2024   -1.5547 O.3       1 <1>        -0.4224
      9 C9          0.9033   -7.1386   -3.4826 C.ar      1 <1>        -0.0172
     10 C10         0.0053   -6.2552   -4.0543 C.ar      1 <1>        -0.0004
     11 O11        -0.0035   -6.0633   -5.3969 O.3       1 <1>        -0.4187
     12 C12        -0.8971   -5.5590   -3.2347 C.ar      1 <1>         0.0609
     13 C13        -0.8866   -5.7562   -1.8415 C.ar      1 <1>         0.0405
     14 O14        -1.7412   -5.0782   -1.0397 O.3       1 <1>        -0.3808
     15 C15        -2.9418   -4.5539   -1.6061 C.3       1 <1>         0.0655
     16 H16        -3.5957   -5.3758   -1.8976 H         1 <1>         0.1408
     17 C17        -3.6424   -3.6903   -0.5890 C.ar      1 <1>        -0.0640
     18 C18        -2.9075   -2.8475    0.2243 C.ar      1 <1>        -0.0822
     19 C19        -3.5473   -2.0550    1.1574 C.ar      1 <1>        -0.0655
     20 C20        -4.9284   -2.1048    1.2778 C.ar      1 <1>        -0.0394
     21 O21        -5.5602   -1.3257    2.1948 O.3       1 <1>        -0.4395
     22 C22        -5.6637   -2.9508    0.4604 C.ar      1 <1>        -0.0649
     23 C23        -5.0194   -3.7379   -0.4745 C.ar      1 <1>        -0.0827
     24 C24        -2.5952   -3.7117   -2.8426 C.3       1 <1>         0.0696
     25 C25        -1.8681   -4.6249   -3.8149 C.2       1 <1>         0.0866
     26 O26        -2.0745   -4.5780   -5.0101 O.2       1 <1>        -0.4549
     27 H27         1.0995   -9.8731    2.4397 H         1 <1>         0.0449
     28 H28         1.6665   -8.9995    0.9962 H         1 <1>         0.0521
     29 H29         1.0879   -8.0934    2.4148 H         1 <1>         0.0521
     30 H30        -1.9130  -10.0391    2.4212 H         1 <1>         0.0517
     31 H31        -2.0378  -10.3103    0.6663 H         1 <1>         0.0446
     32 H32        -0.7408  -11.0961    1.5983 H         1 <1>         0.0446
     33 H33        -1.9185   -7.9642    0.2294 H         1 <1>         0.0921
     34 H34        -0.2756   -5.9550    0.7083 H         1 <1>         0.0863
     35 H35         1.0573   -7.1186    0.5143 H         1 <1>         0.0863
     36 H36         1.4584   -9.1075   -1.4838 H         1 <1>         0.3678
     37 H37         1.6002   -7.6786   -4.1063 H         1 <1>         0.1389
     38 H38        -0.5926   -6.6620   -5.8759 H         1 <1>         0.3710
     39 H39        -1.8323   -2.8092    0.1301 H         1 <1>         0.1330
     40 H40        -2.9727   -1.3974    1.7929 H         1 <1>         0.1246
     41 H41        -5.8186   -0.4558    1.8606 H         1 <1>         0.3541
     42 H42        -6.7389   -2.9916    0.5524 H         1 <1>         0.1267
     43 H43        -5.5914   -4.3965   -1.1114 H         1 <1>         0.1309
     44 H44        -3.5084   -3.3343   -3.3025 H         1 <1>         0.1029
     45 H45        -1.9515   -2.8799   -2.5565 H         1 <1>         0.1101
@<TRIPOS>BOND
     1    1    2 1
     2    1   27 1
     3    1   28 1
     4    1   29 1
     5    2    3 1
     6    2    4 2
     7    3   30 1
     8    3   31 1
     9    3   32 1
    10    4    5 1
    11    4   33 1
    12    5    6 1
    13    5   34 1
    14    5   35 1
    15    6   13 ar
    16    6    7 ar
    17    7    8 1
    18    7    9 ar
    19    8   36 1
    20    9   10 ar
    21    9   37 1
    22   10   11 1
    23   10   12 ar
    24   11   38 1
    25   12   25 1
    26   12   13 ar
    27   13   14 1
    28   14   15 1
    29   15   16 1
    30   15   17 1
    31   15   24 1
    32   17   23 ar
    33   17   18 ar
    34   18   19 ar
    35   18   39 1
    36   19   20 ar
    37   19   40 1
    38   20   21 1
    39   20   22 ar
    40   21   41 1
    41   22   23 ar
    42   22   42 1
    43   23   43 1
    44   24   25 1
    45   24   44 1
    46   24   45 1
    47   25   26 2
@<TRIPOS>Similarity
1.0466
@<TRIPOS>ShapeSim
0.6857
@<TRIPOS>PharmSim
0.3609
# END
# Name:		COC1CCN(CC1)C(=O)C2=C(C=CC(=C2)CC3=NNC(=O)C4=CC=CC=C43)F
# Created and modified by SHAFTS on Thu Mar 11 04:22:19 2021

# 

@<TRIPOS>MOLECULE
COC1CCN(CC1)C(=O)C2=C(C=CC(=C2)CC3=NNC(=O)C4=CC=CC=C43)F
   51    54     0
SMALL
USER_CHARGE


@<TRIPOS>ATOM
      1 C1          1.8236  -13.8065    2.4897 C.3       1 <1>        -0.0022
      2 O2          1.6439  -13.0736    1.2763 O.3       1 <1>        -0.4708
      3 C3          1.6579  -11.6548    1.4467 C.3       1 <1>        -0.0028
      4 C4          3.0916  -11.1383    1.3041 C.3       1 <1>        -0.0209
      5 C5          3.1077   -9.6221    1.5217 C.3       1 <1>        -0.0161
      6 N6          2.1482   -9.0015    0.5983 N.am      1 <1>        -0.3534
      7 C7          2.5328   -8.0062   -0.2252 C.2       1 <1>         0.1257
      8 O8          3.6625   -7.5625   -0.1561 O.2       1 <1>        -0.4679
      9 C9          1.5818   -7.4549   -1.2116 C.ar      1 <1>         0.0833
     10 C10         0.3353   -6.9826   -0.7963 C.ar      1 <1>        -0.0492
     11 C11        -0.5480   -6.4690   -1.7223 C.ar      1 <1>        -0.0710
     12 C12        -1.8936   -5.9590   -1.2744 C.3       1 <1>         0.0345
     13 C13        -1.7883   -4.4945   -0.9354 C.2       1 <1>         0.0183
     14 N14        -0.6504   -3.8790   -1.0596 N.2       1 <1>        -0.3120
     15 N15        -0.4894   -2.5254   -0.7622 N.am      1 <1>        -0.2431
     16 C16        -1.5161   -1.7677   -0.3236 C.2       1 <1>         0.1344
     17 O17        -1.3524   -0.5875   -0.0705 O.2       1 <1>        -0.4710
     18 C18        -2.8346   -2.3924   -0.1577 C.ar      1 <1>         0.0397
     19 C19        -3.9407   -1.6728    0.2908 C.ar      1 <1>        -0.0595
     20 C20        -5.1548   -2.3094    0.4285 C.ar      1 <1>        -0.0851
     21 C21        -5.2866   -3.6583    0.1257 C.ar      1 <1>        -0.0889
     22 C22        -4.2074   -4.3891   -0.3191 C.ar      1 <1>        -0.0753
     23 C23        -2.9685   -3.7643   -0.4721 C.ar      1 <1>        -0.0151
     24 C24        -0.2028   -6.4198   -3.0618 C.ar      1 <1>        -0.0752
     25 C25         1.0291   -6.8849   -3.4830 C.ar      1 <1>        -0.0322
     26 C26         1.9277   -7.3979   -2.5656 C.ar      1 <1>         0.1060
     27 F27         3.1316   -7.8520   -2.9772 F         1 <1>        -0.2472
     28 C28         0.7613   -9.4867    0.5893 C.3       1 <1>        -0.0127
     29 C29         0.7715  -11.0045    0.3822 C.3       1 <1>        -0.0170
     30 H30         1.0226  -13.5584    3.1861 H         1 <1>         0.0720
     31 H31         1.8007  -14.8750    2.2754 H         1 <1>         0.1081
     32 H32         2.7845  -13.5454    2.9330 H         1 <1>         0.0720
     33 H33         1.2789  -11.4044    2.4375 H         1 <1>         0.0933
     34 H34         3.7272  -11.6194    2.0476 H         1 <1>         0.0631
     35 H35         3.4627  -11.3665    0.3049 H         1 <1>         0.0631
     36 H36         2.8233   -9.3973    2.5496 H         1 <1>         0.0974
     37 H37         4.1075   -9.2352    1.3241 H         1 <1>         0.1190
     38 H38         0.0632   -7.0197    0.2482 H         1 <1>         0.1480
     39 H39        -2.6190   -6.0951   -2.0765 H         1 <1>         0.1213
     40 H40        -2.2175   -6.5136   -0.3937 H         1 <1>         0.1213
     41 H41         0.3839   -2.1183   -0.8734 H         1 <1>         0.3837
     42 H42        -3.8467   -0.6237    0.5291 H         1 <1>         0.1474
     43 H43        -6.0131   -1.7535    0.7758 H         1 <1>         0.1338
     44 H44        -6.2464   -4.1398    0.2406 H         1 <1>         0.1362
     45 H45        -4.3199   -5.4377   -0.5519 H         1 <1>         0.1367
     46 H46        -0.8993   -6.0163   -3.7818 H         1 <1>         0.1459
     47 H47         1.2920   -6.8435   -4.5297 H         1 <1>         0.1364
     48 H48         0.2856   -9.2510    1.5412 H         1 <1>         0.1039
     49 H49         0.2128   -9.0106   -0.2235 H         1 <1>         0.1182
     50 H50         1.1645  -11.2339   -0.6083 H         1 <1>         0.0695
     51 H51        -0.2443  -11.3903    0.4694 H         1 <1>         0.0766
@<TRIPOS>BOND
     1    1    2 1
     2    1   30 1
     3    1   31 1
     4    1   32 1
     5    2    3 1
     6    3   29 1
     7    3    4 1
     8    3   33 1
     9    4    5 1
    10    4   34 1
    11    4   35 1
    12    5    6 1
    13    5   36 1
    14    5   37 1
    15    6    7 am
    16    6   28 1
    17    7    8 2
    18    7    9 1
    19    9   26 ar
    20    9   10 ar
    21   10   11 ar
    22   10   38 1
    23   11   12 1
    24   11   24 ar
    25   12   13 1
    26   12   39 1
    27   12   40 1
    28   13   23 1
    29   13   14 2
    30   14   15 1
    31   15   16 am
    32   15   41 1
    33   16   17 2
    34   16   18 1
    35   18   23 ar
    36   18   19 ar
    37   19   20 ar
    38   19   42 1
    39   20   21 ar
    40   20   43 1
    41   21   22 ar
    42   21   44 1
    43   22   23 ar
    44   22   45 1
    45   24   25 ar
    46   24   46 1
    47   25   26 ar
    48   25   47 1
    49   26   27 1
    50   28   29 1
    51   28   48 1
    52   28   49 1
    53   29   50 1
    54   29   51 1
@<TRIPOS>Similarity
1.0462
@<TRIPOS>ShapeSim
0.7276
@<TRIPOS>PharmSim
0.3186
# END
# Name:		COC1=CC=CC=C1NC2=CC3=CC(=CC(=C3C=C2)O)S(=O)(=O)O
# Created and modified by SHAFTS on Thu Mar 11 04:22:19 2021

# 

@<TRIPOS>MOLECULE
COC1=CC=CC=C1NC2=CC3=CC(=CC(=C3C=C2)O)S(=O)(=O)O
   38    40     0
SMALL
USER_CHARGE


@<TRIPOS>ATOM
      1 C1         -7.3110   -4.1254    1.2925 C.3       1 <1>         0.0300
      2 O2         -6.0232   -4.6522    0.9672 O.3       1 <1>        -0.3200
      3 C3         -5.1280   -3.7940    0.4089 C.ar      1 <1>         0.0600
      4 C4         -5.4794   -2.4736    0.1845 C.ar      1 <1>        -0.1700
      5 C5         -4.5678   -1.6017   -0.3830 C.ar      1 <1>        -0.1300
      6 C6         -3.3048   -2.0445   -0.7283 C.ar      1 <1>        -0.1100
      7 C7         -2.9460   -3.3613   -0.5082 C.ar      1 <1>        -0.1600
      8 C8         -3.8527   -4.2400    0.0663 C.ar      1 <1>         0.1800
      9 N9         -3.4919   -5.5736    0.2907 N.pl3     1 <1>        -0.6800
     10 C10        -2.2816   -6.0621   -0.2049 C.ar      1 <1>         0.1600
     11 C11        -1.4922   -6.8976    0.5942 C.ar      1 <1>        -0.1400
     12 C12        -0.3094   -7.3874    0.1364 C.ar      1 <1>        -0.0800
     13 C13         0.1337   -7.0559   -1.1544 C.ar      1 <1>        -0.0700
     14 C14         1.3560   -7.5503   -1.6544 C.ar      1 <1>         0.0900
     15 O15         2.1305   -8.3617   -0.8889 O.3       1 <1>        -0.4900
     16 C16         1.7576   -7.2043   -2.9246 C.ar      1 <1>        -0.0600
     17 C17         0.9721   -6.3731   -3.7191 C.ar      1 <1>        -0.6300
     18 S18         1.5200   -5.9518   -5.3398 S.o2      1 <1>         2.6900
     19 O19         0.9869   -4.6304   -5.6325 O.co2     1 <1>        -0.5000
     20 O20         2.9742   -5.9587   -5.3060 O.co2     1 <1>        -0.5000
     21 O21         0.9901   -6.9657   -6.2384 O.co2     1 <1>        -0.5000
     22 C22        -0.2123   -5.8813   -3.2635 C.ar      1 <1>        -0.0200
     23 C23        -0.6584   -6.2111   -1.9714 C.ar      1 <1>        -0.0400
     24 C24        -1.8785   -5.7216   -1.4782 C.ar      1 <1>        -0.1400
     25 H25        -7.7896   -3.7510    0.3876 H         1 <1>         0.0500
     26 H26        -7.9257   -4.9123    1.7296 H         1 <1>         0.1000
     27 H27        -7.2002   -3.3109    2.0085 H         1 <1>         0.0500
     28 H28        -6.4656   -2.1244    0.4526 H         1 <1>         0.1300
     29 H29        -4.8439   -0.5721   -0.5571 H         1 <1>         0.1200
     30 H30        -2.5965   -1.3601   -1.1715 H         1 <1>         0.1300
     31 H31        -1.9586   -3.7048   -0.7793 H         1 <1>         0.1400
     32 H32        -4.0828   -6.1584    0.7904 H         1 <1>         0.4100
     33 H33        -1.8271   -7.1563    1.5878 H         1 <1>         0.1200
     34 H34         0.2891   -8.0303    0.7649 H         1 <1>         0.1300
     35 H35         1.9360   -9.3033   -0.9924 H         1 <1>         0.3800
     36 H36         2.6934   -7.5818   -3.3096 H         1 <1>         0.1400
     37 H37        -0.8087   -5.2379   -3.8934 H         1 <1>         0.1400
     38 H38        -2.4947   -5.0799   -2.0906 H         1 <1>         0.1400
@<TRIPOS>BOND
     1    1    2 1
     2    1   25 1
     3    1   26 1
     4    1   27 1
     5    2    3 1
     6    3    8 ar
     7    3    4 ar
     8    4    5 ar
     9    4   28 1
    10    5    6 ar
    11    5   29 1
    12    6    7 ar
    13    6   30 1
    14    7    8 ar
    15    7   31 1
    16    8    9 1
    17    9   10 1
    18    9   32 1
    19   10   24 ar
    20   10   11 ar
    21   11   12 ar
    22   11   33 1
    23   12   13 ar
    24   12   34 1
    25   13   23 ar
    26   13   14 ar
    27   14   15 1
    28   14   16 ar
    29   15   35 1
    30   16   17 ar
    31   16   36 1
    32   17   18 1
    33   17   22 ar
    34   18   19 ar
    35   18   20 ar
    36   18   21 ar
    37   22   23 ar
    38   22   37 1
    39   23   24 ar
    40   24   38 1
@<TRIPOS>Similarity
1.0451
@<TRIPOS>ShapeSim
0.7706
@<TRIPOS>PharmSim
0.2746
# END
# Name:		C1=CC(=C(C=C1C=CC2=CC(=CC(=C2)O)O)O)O
# Created and modified by SHAFTS on Thu Mar 11 04:22:19 2021

# 

@<TRIPOS>MOLECULE
C1=CC(=C(C=C1C=CC2=CC(=CC(=C2)O)O)O)O
   30    31     0
SMALL
USER_CHARGE


@<TRIPOS>ATOM
      1 O1          1.7939   -6.7873   -5.1670 O.3       1 <1>        -0.4377
      2 C2          1.2970   -6.7081   -3.9045 C.ar      1 <1>        -0.0296
      3 C3          0.2467   -5.8494   -3.6278 C.ar      1 <1>        -0.0542
      4 C4         -0.2631   -5.7689   -2.3298 C.ar      1 <1>        -0.0766
      5 C5         -1.3814   -4.8568   -2.0299 C.2       1 <1>        -0.0860
      6 C6         -1.8697   -4.7811   -0.7814 C.2       1 <1>        -0.0875
      7 C7         -2.9877   -3.8693   -0.4816 C.ar      1 <1>        -0.0819
      8 C8         -3.5448   -3.0869   -1.4963 C.ar      1 <1>        -0.0855
      9 C9         -4.5913   -2.2340   -1.2133 C.ar      1 <1>        -0.0605
     10 C10        -5.0928   -2.1506    0.0771 C.ar      1 <1>        -0.0076
     11 O11        -6.1243   -1.3084    0.3503 O.3       1 <1>        -0.4324
     12 C12        -4.5425   -2.9283    1.0942 C.ar      1 <1>        -0.0049
     13 O13        -5.0379   -2.8443    2.3579 O.3       1 <1>        -0.4319
     14 C14        -3.4975   -3.7890    0.8177 C.ar      1 <1>        -0.0523
     15 C15         0.2901   -6.5559   -1.3170 C.ar      1 <1>        -0.0563
     16 C16         1.3403   -7.4115   -1.6039 C.ar      1 <1>        -0.0312
     17 O17         1.8795   -8.1776   -0.6194 O.3       1 <1>        -0.4381
     18 C18         1.8396   -7.4920   -2.8962 C.ar      1 <1>        -0.0333
     19 H19         1.3594   -7.4513   -5.7197 H         1 <1>         0.3544
     20 H20        -0.1775   -5.2426   -4.4141 H         1 <1>         0.1372
     21 H21        -1.8081   -4.2494   -2.8143 H         1 <1>         0.1270
     22 H22        -1.4430   -5.3885    0.0031 H         1 <1>         0.1281
     23 H23        -3.1560   -3.1496   -2.5020 H         1 <1>         0.1276
     24 H24        -5.0209   -1.6295   -1.9984 H         1 <1>         0.1351
     25 H25        -6.9980   -1.7101    0.2475 H         1 <1>         0.3564
     26 H26        -5.7561   -3.4654    2.5410 H         1 <1>         0.3564
     27 H27        -3.0705   -4.3925    1.6050 H         1 <1>         0.1397
     28 H28        -0.1003   -6.4968   -0.3118 H         1 <1>         0.1346
     29 H29         1.4601   -9.0433   -0.5205 H         1 <1>         0.3544
     30 H30         2.6588   -8.1605   -3.1160 H         1 <1>         0.1367
@<TRIPOS>BOND
     1    1    2 1
     2    1   19 1
     3    2   18 ar
     4    2    3 ar
     5    3    4 ar
     6    3   20 1
     7    4    5 1
     8    4   15 ar
     9    5    6 2
    10    5   21 1
    11    6    7 1
    12    6   22 1
    13    7   14 ar
    14    7    8 ar
    15    8    9 ar
    16    8   23 1
    17    9   10 ar
    18    9   24 1
    19   10   11 1
    20   10   12 ar
    21   11   25 1
    22   12   13 1
    23   12   14 ar
    24   13   26 1
    25   14   27 1
    26   15   16 ar
    27   15   28 1
    28   16   17 1
    29   16   18 ar
    30   17   29 1
    31   18   30 1
@<TRIPOS>Similarity
1.0444
@<TRIPOS>ShapeSim
0.6810
@<TRIPOS>PharmSim
0.3635
# END
# Name:		OC1=CC(/C=C/C(C=C2O)=CC=C2O)=CC(O)=C1
# Created and modified by SHAFTS on Thu Mar 11 04:22:19 2021

# 

@<TRIPOS>MOLECULE
OC1=CC(/C=C/C(C=C2O)=CC=C2O)=CC(O)=C1
   30    31     0
SMALL
USER_CHARGE


@<TRIPOS>ATOM
      1 O1          1.7939   -6.7873   -5.1670 O.3       1 <1>        -0.4377
      2 C2          1.2970   -6.7081   -3.9045 C.ar      1 <1>        -0.0296
      3 C3          0.2467   -5.8494   -3.6278 C.ar      1 <1>        -0.0542
      4 C4         -0.2631   -5.7689   -2.3298 C.ar      1 <1>        -0.0766
      5 C5         -1.3814   -4.8568   -2.0299 C.2       1 <1>        -0.0860
      6 C6         -1.8697   -4.7811   -0.7814 C.2       1 <1>        -0.0875
      7 C7         -2.9877   -3.8693   -0.4816 C.ar      1 <1>        -0.0819
      8 C8         -3.5448   -3.0869   -1.4963 C.ar      1 <1>        -0.0855
      9 C9         -4.5913   -2.2340   -1.2133 C.ar      1 <1>        -0.0605
     10 C10        -5.0928   -2.1506    0.0771 C.ar      1 <1>        -0.0076
     11 O11        -6.1243   -1.3084    0.3503 O.3       1 <1>        -0.4324
     12 C12        -4.5425   -2.9283    1.0942 C.ar      1 <1>        -0.0049
     13 O13        -5.0379   -2.8443    2.3579 O.3       1 <1>        -0.4319
     14 C14        -3.4975   -3.7890    0.8177 C.ar      1 <1>        -0.0523
     15 C15         0.2901   -6.5559   -1.3170 C.ar      1 <1>        -0.0563
     16 C16         1.3403   -7.4115   -1.6039 C.ar      1 <1>        -0.0312
     17 O17         1.8795   -8.1776   -0.6194 O.3       1 <1>        -0.4381
     18 C18         1.8396   -7.4920   -2.8962 C.ar      1 <1>        -0.0333
     19 H19         1.3594   -7.4513   -5.7197 H         1 <1>         0.3544
     20 H20        -0.1775   -5.2426   -4.4141 H         1 <1>         0.1372
     21 H21        -1.8081   -4.2494   -2.8143 H         1 <1>         0.1270
     22 H22        -1.4430   -5.3885    0.0031 H         1 <1>         0.1281
     23 H23        -3.1560   -3.1496   -2.5020 H         1 <1>         0.1276
     24 H24        -5.0209   -1.6295   -1.9984 H         1 <1>         0.1351
     25 H25        -6.9980   -1.7101    0.2475 H         1 <1>         0.3564
     26 H26        -5.7561   -3.4654    2.5410 H         1 <1>         0.3564
     27 H27        -3.0705   -4.3925    1.6050 H         1 <1>         0.1397
     28 H28        -0.1003   -6.4968   -0.3118 H         1 <1>         0.1346
     29 H29         1.4601   -9.0433   -0.5205 H         1 <1>         0.3544
     30 H30         2.6588   -8.1605   -3.1160 H         1 <1>         0.1367
@<TRIPOS>BOND
     1    1    2 1
     2    1   19 1
     3    2   18 ar
     4    2    3 ar
     5    3    4 ar
     6    3   20 1
     7    4    5 1
     8    4   15 ar
     9    5    6 2
    10    5   21 1
    11    6    7 1
    12    6   22 1
    13    7   14 ar
    14    7    8 ar
    15    8    9 ar
    16    8   23 1
    17    9   10 ar
    18    9   24 1
    19   10   11 1
    20   10   12 ar
    21   11   25 1
    22   12   13 1
    23   12   14 ar
    24   13   26 1
    25   14   27 1
    26   15   16 ar
    27   15   28 1
    28   16   17 1
    29   16   18 ar
    30   17   29 1
    31   18   30 1
@<TRIPOS>Similarity
1.0444
@<TRIPOS>ShapeSim
0.6810
@<TRIPOS>PharmSim
0.3635
# END
# Name:		C1=CC(=C(C=C1/C=C/C2=CC(=CC(=C2)O)O)O)O
# Created and modified by SHAFTS on Thu Mar 11 04:22:19 2021

# 

@<TRIPOS>MOLECULE
C1=CC(=C(C=C1/C=C/C2=CC(=CC(=C2)O)O)O)O
   30    31     0
SMALL
USER_CHARGE


@<TRIPOS>ATOM
      1 O1          1.7939   -6.7873   -5.1670 O.3       1 <1>        -0.4377
      2 C2          1.2970   -6.7081   -3.9045 C.ar      1 <1>        -0.0296
      3 C3          0.2467   -5.8494   -3.6278 C.ar      1 <1>        -0.0542
      4 C4         -0.2631   -5.7689   -2.3298 C.ar      1 <1>        -0.0766
      5 C5         -1.3814   -4.8568   -2.0299 C.2       1 <1>        -0.0860
      6 C6         -1.8697   -4.7811   -0.7814 C.2       1 <1>        -0.0875
      7 C7         -2.9877   -3.8693   -0.4816 C.ar      1 <1>        -0.0819
      8 C8         -3.5448   -3.0869   -1.4963 C.ar      1 <1>        -0.0855
      9 C9         -4.5913   -2.2340   -1.2133 C.ar      1 <1>        -0.0605
     10 C10        -5.0928   -2.1506    0.0771 C.ar      1 <1>        -0.0076
     11 O11        -6.1243   -1.3084    0.3503 O.3       1 <1>        -0.4324
     12 C12        -4.5425   -2.9283    1.0942 C.ar      1 <1>        -0.0049
     13 O13        -5.0379   -2.8443    2.3579 O.3       1 <1>        -0.4319
     14 C14        -3.4975   -3.7890    0.8177 C.ar      1 <1>        -0.0523
     15 C15         0.2901   -6.5559   -1.3170 C.ar      1 <1>        -0.0563
     16 C16         1.3403   -7.4115   -1.6039 C.ar      1 <1>        -0.0312
     17 O17         1.8795   -8.1776   -0.6194 O.3       1 <1>        -0.4381
     18 C18         1.8396   -7.4920   -2.8962 C.ar      1 <1>        -0.0333
     19 H19         1.3594   -7.4513   -5.7197 H         1 <1>         0.3544
     20 H20        -0.1775   -5.2426   -4.4141 H         1 <1>         0.1372
     21 H21        -1.8081   -4.2494   -2.8143 H         1 <1>         0.1270
     22 H22        -1.4430   -5.3885    0.0031 H         1 <1>         0.1281
     23 H23        -3.1560   -3.1496   -2.5020 H         1 <1>         0.1276
     24 H24        -5.0209   -1.6295   -1.9984 H         1 <1>         0.1351
     25 H25        -6.9980   -1.7101    0.2475 H         1 <1>         0.3564
     26 H26        -5.7561   -3.4654    2.5410 H         1 <1>         0.3564
     27 H27        -3.0705   -4.3925    1.6050 H         1 <1>         0.1397
     28 H28        -0.1003   -6.4968   -0.3118 H         1 <1>         0.1346
     29 H29         1.4601   -9.0433   -0.5205 H         1 <1>         0.3544
     30 H30         2.6588   -8.1605   -3.1160 H         1 <1>         0.1367
@<TRIPOS>BOND
     1    1    2 1
     2    1   19 1
     3    2   18 ar
     4    2    3 ar
     5    3    4 ar
     6    3   20 1
     7    4    5 1
     8    4   15 ar
     9    5    6 2
    10    5   21 1
    11    6    7 1
    12    6   22 1
    13    7   14 ar
    14    7    8 ar
    15    8    9 ar
    16    8   23 1
    17    9   10 ar
    18    9   24 1
    19   10   11 1
    20   10   12 ar
    21   11   25 1
    22   12   13 1
    23   12   14 ar
    24   13   26 1
    25   14   27 1
    26   15   16 ar
    27   15   28 1
    28   16   17 1
    29   16   18 ar
    30   17   29 1
    31   18   30 1
@<TRIPOS>Similarity
1.0444
@<TRIPOS>ShapeSim
0.6810
@<TRIPOS>PharmSim
0.3635
# END
# Name:		C1=CC(=C(C=C1C=CC2=CC(=CC(=C2)O)O)O)O
# Created and modified by SHAFTS on Thu Mar 11 04:22:19 2021

# 

@<TRIPOS>MOLECULE
C1=CC(=C(C=C1C=CC2=CC(=CC(=C2)O)O)O)O
   30    31     0
SMALL
USER_CHARGE


@<TRIPOS>ATOM
      1 O1          1.7939   -6.7873   -5.1670 O.3       1 <1>        -0.4377
      2 C2          1.2970   -6.7081   -3.9045 C.ar      1 <1>        -0.0296
      3 C3          0.2467   -5.8494   -3.6278 C.ar      1 <1>        -0.0542
      4 C4         -0.2631   -5.7689   -2.3298 C.ar      1 <1>        -0.0766
      5 C5         -1.3814   -4.8568   -2.0299 C.2       1 <1>        -0.0860
      6 C6         -1.8697   -4.7811   -0.7814 C.2       1 <1>        -0.0875
      7 C7         -2.9877   -3.8693   -0.4816 C.ar      1 <1>        -0.0819
      8 C8         -3.5448   -3.0869   -1.4963 C.ar      1 <1>        -0.0855
      9 C9         -4.5913   -2.2340   -1.2133 C.ar      1 <1>        -0.0605
     10 C10        -5.0928   -2.1506    0.0771 C.ar      1 <1>        -0.0076
     11 O11        -6.1243   -1.3084    0.3503 O.3       1 <1>        -0.4324
     12 C12        -4.5425   -2.9283    1.0942 C.ar      1 <1>        -0.0049
     13 O13        -5.0379   -2.8443    2.3579 O.3       1 <1>        -0.4319
     14 C14        -3.4975   -3.7890    0.8177 C.ar      1 <1>        -0.0523
     15 C15         0.2901   -6.5559   -1.3170 C.ar      1 <1>        -0.0563
     16 C16         1.3403   -7.4115   -1.6039 C.ar      1 <1>        -0.0312
     17 O17         1.8795   -8.1776   -0.6194 O.3       1 <1>        -0.4381
     18 C18         1.8396   -7.4920   -2.8962 C.ar      1 <1>        -0.0333
     19 H19         1.3594   -7.4513   -5.7197 H         1 <1>         0.3544
     20 H20        -0.1775   -5.2426   -4.4141 H         1 <1>         0.1372
     21 H21        -1.8081   -4.2494   -2.8143 H         1 <1>         0.1270
     22 H22        -1.4430   -5.3885    0.0031 H         1 <1>         0.1281
     23 H23        -3.1560   -3.1496   -2.5020 H         1 <1>         0.1276
     24 H24        -5.0209   -1.6295   -1.9984 H         1 <1>         0.1351
     25 H25        -6.9980   -1.7101    0.2475 H         1 <1>         0.3564
     26 H26        -5.7561   -3.4654    2.5410 H         1 <1>         0.3564
     27 H27        -3.0705   -4.3925    1.6050 H         1 <1>         0.1397
     28 H28        -0.1003   -6.4968   -0.3118 H         1 <1>         0.1346
     29 H29         1.4601   -9.0433   -0.5205 H         1 <1>         0.3544
     30 H30         2.6588   -8.1605   -3.1160 H         1 <1>         0.1367
@<TRIPOS>BOND
     1    1    2 1
     2    1   19 1
     3    2   18 ar
     4    2    3 ar
     5    3    4 ar
     6    3   20 1
     7    4    5 1
     8    4   15 ar
     9    5    6 2
    10    5   21 1
    11    6    7 1
    12    6   22 1
    13    7   14 ar
    14    7    8 ar
    15    8    9 ar
    16    8   23 1
    17    9   10 ar
    18    9   24 1
    19   10   11 1
    20   10   12 ar
    21   11   25 1
    22   12   13 1
    23   12   14 ar
    24   13   26 1
    25   14   27 1
    26   15   16 ar
    27   15   28 1
    28   16   17 1
    29   16   18 ar
    30   17   29 1
    31   18   30 1
@<TRIPOS>Similarity
1.0444
@<TRIPOS>ShapeSim
0.6810
@<TRIPOS>PharmSim
0.3635
# END
# Name:		C1=CC(=CC(=C1)Cl)NC2=NC3=C(C=CC(=C3)C(=O)O)C4=C2C=CN=C4
# Created and modified by SHAFTS on Thu Mar 11 04:22:19 2021

# 

@<TRIPOS>MOLECULE
C1=CC(=CC(=C1)Cl)NC2=NC3=C(C=CC(=C3)C(=O)O)C4=C2C=CN=C4
   36    39     0
SMALL
USER_CHARGE


@<TRIPOS>ATOM
      1 O1         -0.8008   -5.1414   -6.0596 O.co2     1 <1>        -0.5000
      2 C2         -0.0021   -5.9915   -5.6921 C.2       1 <1>         0.5200
      3 O3          0.6932   -6.5728   -6.5131 O.co2     1 <1>        -0.5000
      4 C4          0.1270   -6.3113   -4.2578 C.ar      1 <1>        -0.1100
      5 C5          1.0488   -7.2831   -3.8402 C.ar      1 <1>        -0.0800
      6 C6          1.1784   -7.5884   -2.5185 C.ar      1 <1>        -0.1100
      7 C7          0.3932   -6.9353   -1.5662 C.ar      1 <1>        -0.1100
      8 C8         -0.5417   -5.9521   -1.9665 C.ar      1 <1>         0.1400
      9 C9         -0.6609   -5.6442   -3.3280 C.ar      1 <1>        -0.0600
     10 N10        -1.3069   -5.3127   -1.0638 N.ar      1 <1>        -0.5100
     11 C11        -1.2484   -5.5443    0.2255 C.ar      1 <1>         0.4200
     12 N12        -2.0714   -4.8419    1.0861 N.pl3     1 <1>        -0.6500
     13 C13        -3.0421   -3.9765    0.5741 C.ar      1 <1>         0.1800
     14 C14        -3.7423   -4.3184   -0.5757 C.ar      1 <1>        -0.1000
     15 C15        -4.7016   -3.4616   -1.0795 C.ar      1 <1>        -0.0800
     16 C16        -4.9655   -2.2643   -0.4407 C.ar      1 <1>        -0.1300
     17 C17        -4.2696   -1.9198    0.7054 C.ar      1 <1>        -0.0200
     18 Cl18       -4.6044   -0.4154    1.5042 Cl        1 <1>        -0.0700
     19 C19        -3.3127   -2.7755    1.2173 C.ar      1 <1>        -0.1500
     20 C20        -0.3202   -6.5398    0.7609 C.ar      1 <1>        -0.0800
     21 C21        -0.2173   -6.8269    2.1237 C.ar      1 <1>        -0.1400
     22 C22         0.6825   -7.7767    2.5258 C.ar      1 <1>         0.0800
     23 N23         1.4479   -8.4212    1.6617 N.ar      1 <1>        -0.4700
     24 C24         1.3985   -8.1963    0.3644 C.ar      1 <1>         0.1300
     25 C25         0.5132   -7.2466   -0.1387 C.ar      1 <1>        -0.0400
     26 H26         1.6592   -7.7926   -4.5711 H         1 <1>         0.1400
     27 H27         1.8905   -8.3382   -2.2066 H         1 <1>         0.1200
     28 H28        -1.3685   -4.8964   -3.6545 H         1 <1>         0.1400
     29 H29        -1.9752   -4.9497    2.0453 H         1 <1>         0.4200
     30 H30        -3.5367   -5.2533   -1.0759 H         1 <1>         0.1400
     31 H31        -5.2458   -3.7271   -1.9737 H         1 <1>         0.1400
     32 H32        -5.7160   -1.5962   -0.8366 H         1 <1>         0.1300
     33 H33        -2.7697   -2.5066    2.1114 H         1 <1>         0.1300
     34 H34        -0.8340   -6.3105    2.8446 H         1 <1>         0.1400
     35 H35         0.7699   -8.0057    3.5776 H         1 <1>         0.1600
     36 H36         2.0426   -8.7460   -0.3060 H         1 <1>         0.1700
@<TRIPOS>BOND
     1    1    2 ar
     2    2    3 ar
     3    2    4 1
     4    4    9 ar
     5    4    5 ar
     6    5    6 ar
     7    5   26 1
     8    6    7 ar
     9    6   27 1
    10    7   25 ar
    11    7    8 ar
    12    8    9 ar
    13    8   10 ar
    14    9   28 1
    15   10   11 ar
    16   11   12 1
    17   11   20 ar
    18   12   13 1
    19   12   29 1
    20   13   19 ar
    21   13   14 ar
    22   14   15 ar
    23   14   30 1
    24   15   16 ar
    25   15   31 1
    26   16   17 ar
    27   16   32 1
    28   17   18 1
    29   17   19 ar
    30   19   33 1
    31   20   25 ar
    32   20   21 ar
    33   21   22 ar
    34   21   34 1
    35   22   23 ar
    36   22   35 1
    37   23   24 ar
    38   24   25 ar
    39   24   36 1
@<TRIPOS>Similarity
1.0432
@<TRIPOS>ShapeSim
0.7502
@<TRIPOS>PharmSim
0.2930
# END
# Name:		O=C(C1=CC=C2C3=C(C(NC4=CC=CC(Cl)=C4)=NC2=C1)C=CN=C3)O
# Created and modified by SHAFTS on Thu Mar 11 04:22:19 2021

# 

@<TRIPOS>MOLECULE
O=C(C1=CC=C2C3=C(C(NC4=CC=CC(Cl)=C4)=NC2=C1)C=CN=C3)O
   36    39     0
SMALL
USER_CHARGE


@<TRIPOS>ATOM
      1 O1         -0.8008   -5.1414   -6.0596 O.co2     1 <1>        -0.5000
      2 C2         -0.0021   -5.9915   -5.6921 C.2       1 <1>         0.5200
      3 O3          0.6932   -6.5728   -6.5131 O.co2     1 <1>        -0.5000
      4 C4          0.1270   -6.3113   -4.2578 C.ar      1 <1>        -0.1100
      5 C5          1.0488   -7.2831   -3.8402 C.ar      1 <1>        -0.0800
      6 C6          1.1784   -7.5884   -2.5185 C.ar      1 <1>        -0.1100
      7 C7          0.3932   -6.9353   -1.5662 C.ar      1 <1>        -0.1100
      8 C8         -0.5417   -5.9521   -1.9665 C.ar      1 <1>         0.1400
      9 C9         -0.6609   -5.6442   -3.3280 C.ar      1 <1>        -0.0600
     10 N10        -1.3069   -5.3127   -1.0638 N.ar      1 <1>        -0.5100
     11 C11        -1.2484   -5.5443    0.2255 C.ar      1 <1>         0.4200
     12 N12        -2.0714   -4.8419    1.0861 N.pl3     1 <1>        -0.6500
     13 C13        -3.0421   -3.9765    0.5741 C.ar      1 <1>         0.1800
     14 C14        -3.7423   -4.3184   -0.5757 C.ar      1 <1>        -0.1000
     15 C15        -4.7016   -3.4616   -1.0795 C.ar      1 <1>        -0.0800
     16 C16        -4.9655   -2.2643   -0.4407 C.ar      1 <1>        -0.1300
     17 C17        -4.2696   -1.9198    0.7054 C.ar      1 <1>        -0.0200
     18 Cl18       -4.6044   -0.4154    1.5042 Cl        1 <1>        -0.0700
     19 C19        -3.3127   -2.7755    1.2173 C.ar      1 <1>        -0.1500
     20 C20        -0.3202   -6.5398    0.7609 C.ar      1 <1>        -0.0800
     21 C21        -0.2173   -6.8269    2.1237 C.ar      1 <1>        -0.1400
     22 C22         0.6825   -7.7767    2.5258 C.ar      1 <1>         0.0800
     23 N23         1.4479   -8.4212    1.6617 N.ar      1 <1>        -0.4700
     24 C24         1.3985   -8.1963    0.3644 C.ar      1 <1>         0.1300
     25 C25         0.5132   -7.2466   -0.1387 C.ar      1 <1>        -0.0400
     26 H26         1.6592   -7.7926   -4.5711 H         1 <1>         0.1400
     27 H27         1.8905   -8.3382   -2.2066 H         1 <1>         0.1200
     28 H28        -1.3685   -4.8964   -3.6545 H         1 <1>         0.1400
     29 H29        -1.9752   -4.9497    2.0453 H         1 <1>         0.4200
     30 H30        -3.5367   -5.2533   -1.0759 H         1 <1>         0.1400
     31 H31        -5.2458   -3.7271   -1.9737 H         1 <1>         0.1400
     32 H32        -5.7160   -1.5962   -0.8366 H         1 <1>         0.1300
     33 H33        -2.7697   -2.5066    2.1114 H         1 <1>         0.1300
     34 H34        -0.8340   -6.3105    2.8446 H         1 <1>         0.1400
     35 H35         0.7699   -8.0057    3.5776 H         1 <1>         0.1600
     36 H36         2.0426   -8.7460   -0.3060 H         1 <1>         0.1700
@<TRIPOS>BOND
     1    1    2 ar
     2    2    3 ar
     3    2    4 1
     4    4    9 ar
     5    4    5 ar
     6    5    6 ar
     7    5   26 1
     8    6    7 ar
     9    6   27 1
    10    7   25 ar
    11    7    8 ar
    12    8    9 ar
    13    8   10 ar
    14    9   28 1
    15   10   11 ar
    16   11   12 1
    17   11   20 ar
    18   12   13 1
    19   12   29 1
    20   13   19 ar
    21   13   14 ar
    22   14   15 ar
    23   14   30 1
    24   15   16 ar
    25   15   31 1
    26   16   17 ar
    27   16   32 1
    28   17   18 1
    29   17   19 ar
    30   19   33 1
    31   20   25 ar
    32   20   21 ar
    33   21   22 ar
    34   21   34 1
    35   22   23 ar
    36   22   35 1
    37   23   24 ar
    38   24   25 ar
    39   24   36 1
@<TRIPOS>Similarity
1.0432
@<TRIPOS>ShapeSim
0.7502
@<TRIPOS>PharmSim
0.2930
# END
# Name:		C1=CC(=CC(=C1)Cl)NC2=NC3=C(C=CC(=C3)C(=O)O)C4=C2C=CN=C4
# Created and modified by SHAFTS on Thu Mar 11 04:22:19 2021

# 

@<TRIPOS>MOLECULE
C1=CC(=CC(=C1)Cl)NC2=NC3=C(C=CC(=C3)C(=O)O)C4=C2C=CN=C4
   36    39     0
SMALL
USER_CHARGE


@<TRIPOS>ATOM
      1 O1         -0.8008   -5.1414   -6.0596 O.co2     1 <1>        -0.5000
      2 C2         -0.0021   -5.9915   -5.6921 C.2       1 <1>         0.5200
      3 O3          0.6932   -6.5728   -6.5131 O.co2     1 <1>        -0.5000
      4 C4          0.1270   -6.3113   -4.2578 C.ar      1 <1>        -0.1100
      5 C5          1.0488   -7.2831   -3.8402 C.ar      1 <1>        -0.0800
      6 C6          1.1784   -7.5884   -2.5185 C.ar      1 <1>        -0.1100
      7 C7          0.3932   -6.9353   -1.5662 C.ar      1 <1>        -0.1100
      8 C8         -0.5417   -5.9521   -1.9665 C.ar      1 <1>         0.1400
      9 C9         -0.6609   -5.6442   -3.3280 C.ar      1 <1>        -0.0600
     10 N10        -1.3069   -5.3127   -1.0638 N.ar      1 <1>        -0.5100
     11 C11        -1.2484   -5.5443    0.2255 C.ar      1 <1>         0.4200
     12 N12        -2.0714   -4.8419    1.0861 N.pl3     1 <1>        -0.6500
     13 C13        -3.0421   -3.9765    0.5741 C.ar      1 <1>         0.1800
     14 C14        -3.7423   -4.3184   -0.5757 C.ar      1 <1>        -0.1000
     15 C15        -4.7016   -3.4616   -1.0795 C.ar      1 <1>        -0.0800
     16 C16        -4.9655   -2.2643   -0.4407 C.ar      1 <1>        -0.1300
     17 C17        -4.2696   -1.9198    0.7054 C.ar      1 <1>        -0.0200
     18 Cl18       -4.6044   -0.4154    1.5042 Cl        1 <1>        -0.0700
     19 C19        -3.3127   -2.7755    1.2173 C.ar      1 <1>        -0.1500
     20 C20        -0.3202   -6.5398    0.7609 C.ar      1 <1>        -0.0800
     21 C21        -0.2173   -6.8269    2.1237 C.ar      1 <1>        -0.1400
     22 C22         0.6825   -7.7767    2.5258 C.ar      1 <1>         0.0800
     23 N23         1.4479   -8.4212    1.6617 N.ar      1 <1>        -0.4700
     24 C24         1.3985   -8.1963    0.3644 C.ar      1 <1>         0.1300
     25 C25         0.5132   -7.2466   -0.1387 C.ar      1 <1>        -0.0400
     26 H26         1.6592   -7.7926   -4.5711 H         1 <1>         0.1400
     27 H27         1.8905   -8.3382   -2.2066 H         1 <1>         0.1200
     28 H28        -1.3685   -4.8964   -3.6545 H         1 <1>         0.1400
     29 H29        -1.9752   -4.9497    2.0453 H         1 <1>         0.4200
     30 H30        -3.5367   -5.2533   -1.0759 H         1 <1>         0.1400
     31 H31        -5.2458   -3.7271   -1.9737 H         1 <1>         0.1400
     32 H32        -5.7160   -1.5962   -0.8366 H         1 <1>         0.1300
     33 H33        -2.7697   -2.5066    2.1114 H         1 <1>         0.1300
     34 H34        -0.8340   -6.3105    2.8446 H         1 <1>         0.1400
     35 H35         0.7699   -8.0057    3.5776 H         1 <1>         0.1600
     36 H36         2.0426   -8.7460   -0.3060 H         1 <1>         0.1700
@<TRIPOS>BOND
     1    1    2 ar
     2    2    3 ar
     3    2    4 1
     4    4    9 ar
     5    4    5 ar
     6    5    6 ar
     7    5   26 1
     8    6    7 ar
     9    6   27 1
    10    7   25 ar
    11    7    8 ar
    12    8    9 ar
    13    8   10 ar
    14    9   28 1
    15   10   11 ar
    16   11   12 1
    17   11   20 ar
    18   12   13 1
    19   12   29 1
    20   13   19 ar
    21   13   14 ar
    22   14   15 ar
    23   14   30 1
    24   15   16 ar
    25   15   31 1
    26   16   17 ar
    27   16   32 1
    28   17   18 1
    29   17   19 ar
    30   19   33 1
    31   20   25 ar
    32   20   21 ar
    33   21   22 ar
    34   21   34 1
    35   22   23 ar
    36   22   35 1
    37   23   24 ar
    38   24   25 ar
    39   24   36 1
@<TRIPOS>Similarity
1.0432
@<TRIPOS>ShapeSim
0.7502
@<TRIPOS>PharmSim
0.2930
# END
# Name:		O=C(C1=CC=C2C3=C(C(NC4=CC=CC(Cl)=C4)=NC2=C1)C=CN=C3)O
# Created and modified by SHAFTS on Thu Mar 11 04:22:19 2021

# 

@<TRIPOS>MOLECULE
O=C(C1=CC=C2C3=C(C(NC4=CC=CC(Cl)=C4)=NC2=C1)C=CN=C3)O
   36    39     0
SMALL
USER_CHARGE


@<TRIPOS>ATOM
      1 O1         -0.8008   -5.1414   -6.0596 O.co2     1 <1>        -0.5000
      2 C2         -0.0021   -5.9915   -5.6921 C.2       1 <1>         0.5200
      3 O3          0.6932   -6.5728   -6.5131 O.co2     1 <1>        -0.5000
      4 C4          0.1270   -6.3113   -4.2578 C.ar      1 <1>        -0.1100
      5 C5          1.0488   -7.2831   -3.8402 C.ar      1 <1>        -0.0800
      6 C6          1.1784   -7.5884   -2.5185 C.ar      1 <1>        -0.1100
      7 C7          0.3932   -6.9353   -1.5662 C.ar      1 <1>        -0.1100
      8 C8         -0.5417   -5.9521   -1.9665 C.ar      1 <1>         0.1400
      9 C9         -0.6609   -5.6442   -3.3280 C.ar      1 <1>        -0.0600
     10 N10        -1.3069   -5.3127   -1.0638 N.ar      1 <1>        -0.5100
     11 C11        -1.2484   -5.5443    0.2255 C.ar      1 <1>         0.4200
     12 N12        -2.0714   -4.8419    1.0861 N.pl3     1 <1>        -0.6500
     13 C13        -3.0421   -3.9765    0.5741 C.ar      1 <1>         0.1800
     14 C14        -3.7423   -4.3184   -0.5757 C.ar      1 <1>        -0.1000
     15 C15        -4.7016   -3.4616   -1.0795 C.ar      1 <1>        -0.0800
     16 C16        -4.9655   -2.2643   -0.4407 C.ar      1 <1>        -0.1300
     17 C17        -4.2696   -1.9198    0.7054 C.ar      1 <1>        -0.0200
     18 Cl18       -4.6044   -0.4154    1.5042 Cl        1 <1>        -0.0700
     19 C19        -3.3127   -2.7755    1.2173 C.ar      1 <1>        -0.1500
     20 C20        -0.3202   -6.5398    0.7609 C.ar      1 <1>        -0.0800
     21 C21        -0.2173   -6.8269    2.1237 C.ar      1 <1>        -0.1400
     22 C22         0.6825   -7.7767    2.5258 C.ar      1 <1>         0.0800
     23 N23         1.4479   -8.4212    1.6617 N.ar      1 <1>        -0.4700
     24 C24         1.3985   -8.1963    0.3644 C.ar      1 <1>         0.1300
     25 C25         0.5132   -7.2466   -0.1387 C.ar      1 <1>        -0.0400
     26 H26         1.6592   -7.7926   -4.5711 H         1 <1>         0.1400
     27 H27         1.8905   -8.3382   -2.2066 H         1 <1>         0.1200
     28 H28        -1.3685   -4.8964   -3.6545 H         1 <1>         0.1400
     29 H29        -1.9752   -4.9497    2.0453 H         1 <1>         0.4200
     30 H30        -3.5367   -5.2533   -1.0759 H         1 <1>         0.1400
     31 H31        -5.2458   -3.7271   -1.9737 H         1 <1>         0.1400
     32 H32        -5.7160   -1.5962   -0.8366 H         1 <1>         0.1300
     33 H33        -2.7697   -2.5066    2.1114 H         1 <1>         0.1300
     34 H34        -0.8340   -6.3105    2.8446 H         1 <1>         0.1400
     35 H35         0.7699   -8.0057    3.5776 H         1 <1>         0.1600
     36 H36         2.0426   -8.7460   -0.3060 H         1 <1>         0.1700
@<TRIPOS>BOND
     1    1    2 ar
     2    2    3 ar
     3    2    4 1
     4    4    9 ar
     5    4    5 ar
     6    5    6 ar
     7    5   26 1
     8    6    7 ar
     9    6   27 1
    10    7   25 ar
    11    7    8 ar
    12    8    9 ar
    13    8   10 ar
    14    9   28 1
    15   10   11 ar
    16   11   12 1
    17   11   20 ar
    18   12   13 1
    19   12   29 1
    20   13   19 ar
    21   13   14 ar
    22   14   15 ar
    23   14   30 1
    24   15   16 ar
    25   15   31 1
    26   16   17 ar
    27   16   32 1
    28   17   18 1
    29   17   19 ar
    30   19   33 1
    31   20   25 ar
    32   20   21 ar
    33   21   22 ar
    34   21   34 1
    35   22   23 ar
    36   22   35 1
    37   23   24 ar
    38   24   25 ar
    39   24   36 1
@<TRIPOS>Similarity
1.0432
@<TRIPOS>ShapeSim
0.7502
@<TRIPOS>PharmSim
0.2930
# END
# Name:		C1=CC(=CC(=C1)Cl)NC2=NC3=C(C=CC(=C3)C(=O)O)C4=C2C=CN=C4
# Created and modified by SHAFTS on Thu Mar 11 04:22:19 2021

# 

@<TRIPOS>MOLECULE
C1=CC(=CC(=C1)Cl)NC2=NC3=C(C=CC(=C3)C(=O)O)C4=C2C=CN=C4
   36    39     0
SMALL
USER_CHARGE


@<TRIPOS>ATOM
      1 O1         -0.8008   -5.1414   -6.0596 O.co2     1 <1>        -0.5000
      2 C2         -0.0021   -5.9915   -5.6921 C.2       1 <1>         0.5200
      3 O3          0.6932   -6.5728   -6.5131 O.co2     1 <1>        -0.5000
      4 C4          0.1270   -6.3113   -4.2578 C.ar      1 <1>        -0.1100
      5 C5          1.0488   -7.2831   -3.8402 C.ar      1 <1>        -0.0800
      6 C6          1.1784   -7.5884   -2.5185 C.ar      1 <1>        -0.1100
      7 C7          0.3932   -6.9353   -1.5662 C.ar      1 <1>        -0.1100
      8 C8         -0.5417   -5.9521   -1.9665 C.ar      1 <1>         0.1400
      9 C9         -0.6609   -5.6442   -3.3280 C.ar      1 <1>        -0.0600
     10 N10        -1.3069   -5.3127   -1.0638 N.ar      1 <1>        -0.5100
     11 C11        -1.2484   -5.5443    0.2255 C.ar      1 <1>         0.4200
     12 N12        -2.0714   -4.8419    1.0861 N.pl3     1 <1>        -0.6500
     13 C13        -3.0421   -3.9765    0.5741 C.ar      1 <1>         0.1800
     14 C14        -3.7423   -4.3184   -0.5757 C.ar      1 <1>        -0.1000
     15 C15        -4.7016   -3.4616   -1.0795 C.ar      1 <1>        -0.0800
     16 C16        -4.9655   -2.2643   -0.4407 C.ar      1 <1>        -0.1300
     17 C17        -4.2696   -1.9198    0.7054 C.ar      1 <1>        -0.0200
     18 Cl18       -4.6044   -0.4154    1.5042 Cl        1 <1>        -0.0700
     19 C19        -3.3127   -2.7755    1.2173 C.ar      1 <1>        -0.1500
     20 C20        -0.3202   -6.5398    0.7609 C.ar      1 <1>        -0.0800
     21 C21        -0.2173   -6.8269    2.1237 C.ar      1 <1>        -0.1400
     22 C22         0.6825   -7.7767    2.5258 C.ar      1 <1>         0.0800
     23 N23         1.4479   -8.4212    1.6617 N.ar      1 <1>        -0.4700
     24 C24         1.3985   -8.1963    0.3644 C.ar      1 <1>         0.1300
     25 C25         0.5132   -7.2466   -0.1387 C.ar      1 <1>        -0.0400
     26 H26         1.6592   -7.7926   -4.5711 H         1 <1>         0.1400
     27 H27         1.8905   -8.3382   -2.2066 H         1 <1>         0.1200
     28 H28        -1.3685   -4.8964   -3.6545 H         1 <1>         0.1400
     29 H29        -1.9752   -4.9497    2.0453 H         1 <1>         0.4200
     30 H30        -3.5367   -5.2533   -1.0759 H         1 <1>         0.1400
     31 H31        -5.2458   -3.7271   -1.9737 H         1 <1>         0.1400
     32 H32        -5.7160   -1.5962   -0.8366 H         1 <1>         0.1300
     33 H33        -2.7697   -2.5066    2.1114 H         1 <1>         0.1300
     34 H34        -0.8340   -6.3105    2.8446 H         1 <1>         0.1400
     35 H35         0.7699   -8.0057    3.5776 H         1 <1>         0.1600
     36 H36         2.0426   -8.7460   -0.3060 H         1 <1>         0.1700
@<TRIPOS>BOND
     1    1    2 ar
     2    2    3 ar
     3    2    4 1
     4    4    9 ar
     5    4    5 ar
     6    5    6 ar
     7    5   26 1
     8    6    7 ar
     9    6   27 1
    10    7   25 ar
    11    7    8 ar
    12    8    9 ar
    13    8   10 ar
    14    9   28 1
    15   10   11 ar
    16   11   12 1
    17   11   20 ar
    18   12   13 1
    19   12   29 1
    20   13   19 ar
    21   13   14 ar
    22   14   15 ar
    23   14   30 1
    24   15   16 ar
    25   15   31 1
    26   16   17 ar
    27   16   32 1
    28   17   18 1
    29   17   19 ar
    30   19   33 1
    31   20   25 ar
    32   20   21 ar
    33   21   22 ar
    34   21   34 1
    35   22   23 ar
    36   22   35 1
    37   23   24 ar
    38   24   25 ar
    39   24   36 1
@<TRIPOS>Similarity
1.0432
@<TRIPOS>ShapeSim
0.7502
@<TRIPOS>PharmSim
0.2930
# END
# Name:		O=C(C1=CC=C2C3=C(C(NC4=CC=CC(Cl)=C4)=NC2=C1)C=CN=C3)O
# Created and modified by SHAFTS on Thu Mar 11 04:22:19 2021

# 

@<TRIPOS>MOLECULE
O=C(C1=CC=C2C3=C(C(NC4=CC=CC(Cl)=C4)=NC2=C1)C=CN=C3)O
   36    39     0
SMALL
USER_CHARGE


@<TRIPOS>ATOM
      1 O1         -0.8008   -5.1414   -6.0596 O.co2     1 <1>        -0.5000
      2 C2         -0.0021   -5.9915   -5.6921 C.2       1 <1>         0.5200
      3 O3          0.6932   -6.5728   -6.5131 O.co2     1 <1>        -0.5000
      4 C4          0.1270   -6.3113   -4.2578 C.ar      1 <1>        -0.1100
      5 C5          1.0488   -7.2831   -3.8402 C.ar      1 <1>        -0.0800
      6 C6          1.1784   -7.5884   -2.5185 C.ar      1 <1>        -0.1100
      7 C7          0.3932   -6.9353   -1.5662 C.ar      1 <1>        -0.1100
      8 C8         -0.5417   -5.9521   -1.9665 C.ar      1 <1>         0.1400
      9 C9         -0.6609   -5.6442   -3.3280 C.ar      1 <1>        -0.0600
     10 N10        -1.3069   -5.3127   -1.0638 N.ar      1 <1>        -0.5100
     11 C11        -1.2484   -5.5443    0.2255 C.ar      1 <1>         0.4200
     12 N12        -2.0714   -4.8419    1.0861 N.pl3     1 <1>        -0.6500
     13 C13        -3.0421   -3.9765    0.5741 C.ar      1 <1>         0.1800
     14 C14        -3.7423   -4.3184   -0.5757 C.ar      1 <1>        -0.1000
     15 C15        -4.7016   -3.4616   -1.0795 C.ar      1 <1>        -0.0800
     16 C16        -4.9655   -2.2643   -0.4407 C.ar      1 <1>        -0.1300
     17 C17        -4.2696   -1.9198    0.7054 C.ar      1 <1>        -0.0200
     18 Cl18       -4.6044   -0.4154    1.5042 Cl        1 <1>        -0.0700
     19 C19        -3.3127   -2.7755    1.2173 C.ar      1 <1>        -0.1500
     20 C20        -0.3202   -6.5398    0.7609 C.ar      1 <1>        -0.0800
     21 C21        -0.2173   -6.8269    2.1237 C.ar      1 <1>        -0.1400
     22 C22         0.6825   -7.7767    2.5258 C.ar      1 <1>         0.0800
     23 N23         1.4479   -8.4212    1.6617 N.ar      1 <1>        -0.4700
     24 C24         1.3985   -8.1963    0.3644 C.ar      1 <1>         0.1300
     25 C25         0.5132   -7.2466   -0.1387 C.ar      1 <1>        -0.0400
     26 H26         1.6592   -7.7926   -4.5711 H         1 <1>         0.1400
     27 H27         1.8905   -8.3382   -2.2066 H         1 <1>         0.1200
     28 H28        -1.3685   -4.8964   -3.6545 H         1 <1>         0.1400
     29 H29        -1.9752   -4.9497    2.0453 H         1 <1>         0.4200
     30 H30        -3.5367   -5.2533   -1.0759 H         1 <1>         0.1400
     31 H31        -5.2458   -3.7271   -1.9737 H         1 <1>         0.1400
     32 H32        -5.7160   -1.5962   -0.8366 H         1 <1>         0.1300
     33 H33        -2.7697   -2.5066    2.1114 H         1 <1>         0.1300
     34 H34        -0.8340   -6.3105    2.8446 H         1 <1>         0.1400
     35 H35         0.7699   -8.0057    3.5776 H         1 <1>         0.1600
     36 H36         2.0426   -8.7460   -0.3060 H         1 <1>         0.1700
@<TRIPOS>BOND
     1    1    2 ar
     2    2    3 ar
     3    2    4 1
     4    4    9 ar
     5    4    5 ar
     6    5    6 ar
     7    5   26 1
     8    6    7 ar
     9    6   27 1
    10    7   25 ar
    11    7    8 ar
    12    8    9 ar
    13    8   10 ar
    14    9   28 1
    15   10   11 ar
    16   11   12 1
    17   11   20 ar
    18   12   13 1
    19   12   29 1
    20   13   19 ar
    21   13   14 ar
    22   14   15 ar
    23   14   30 1
    24   15   16 ar
    25   15   31 1
    26   16   17 ar
    27   16   32 1
    28   17   18 1
    29   17   19 ar
    30   19   33 1
    31   20   25 ar
    32   20   21 ar
    33   21   22 ar
    34   21   34 1
    35   22   23 ar
    36   22   35 1
    37   23   24 ar
    38   24   25 ar
    39   24   36 1
@<TRIPOS>Similarity
1.0432
@<TRIPOS>ShapeSim
0.7502
@<TRIPOS>PharmSim
0.2930
# END
# Name:		C1=CC(=CC(=C1)Cl)NC2=NC3=C(C=CC(=C3)C(=O)O)C4=C2C=CN=C4
# Created and modified by SHAFTS on Thu Mar 11 04:22:19 2021

# 

@<TRIPOS>MOLECULE
C1=CC(=CC(=C1)Cl)NC2=NC3=C(C=CC(=C3)C(=O)O)C4=C2C=CN=C4
   36    39     0
SMALL
USER_CHARGE


@<TRIPOS>ATOM
      1 O1         -0.8008   -5.1414   -6.0596 O.co2     1 <1>        -0.5000
      2 C2         -0.0021   -5.9915   -5.6921 C.2       1 <1>         0.5200
      3 O3          0.6932   -6.5728   -6.5131 O.co2     1 <1>        -0.5000
      4 C4          0.1270   -6.3113   -4.2578 C.ar      1 <1>        -0.1100
      5 C5          1.0488   -7.2831   -3.8402 C.ar      1 <1>        -0.0800
      6 C6          1.1784   -7.5884   -2.5185 C.ar      1 <1>        -0.1100
      7 C7          0.3932   -6.9353   -1.5662 C.ar      1 <1>        -0.1100
      8 C8         -0.5417   -5.9521   -1.9665 C.ar      1 <1>         0.1400
      9 C9         -0.6609   -5.6442   -3.3280 C.ar      1 <1>        -0.0600
     10 N10        -1.3069   -5.3127   -1.0638 N.ar      1 <1>        -0.5100
     11 C11        -1.2484   -5.5443    0.2255 C.ar      1 <1>         0.4200
     12 N12        -2.0714   -4.8419    1.0861 N.pl3     1 <1>        -0.6500
     13 C13        -3.0421   -3.9765    0.5741 C.ar      1 <1>         0.1800
     14 C14        -3.7423   -4.3184   -0.5757 C.ar      1 <1>        -0.1000
     15 C15        -4.7016   -3.4616   -1.0795 C.ar      1 <1>        -0.0800
     16 C16        -4.9655   -2.2643   -0.4407 C.ar      1 <1>        -0.1300
     17 C17        -4.2696   -1.9198    0.7054 C.ar      1 <1>        -0.0200
     18 Cl18       -4.6044   -0.4154    1.5042 Cl        1 <1>        -0.0700
     19 C19        -3.3127   -2.7755    1.2173 C.ar      1 <1>        -0.1500
     20 C20        -0.3202   -6.5398    0.7609 C.ar      1 <1>        -0.0800
     21 C21        -0.2173   -6.8269    2.1237 C.ar      1 <1>        -0.1400
     22 C22         0.6825   -7.7767    2.5258 C.ar      1 <1>         0.0800
     23 N23         1.4479   -8.4212    1.6617 N.ar      1 <1>        -0.4700
     24 C24         1.3985   -8.1963    0.3644 C.ar      1 <1>         0.1300
     25 C25         0.5132   -7.2466   -0.1387 C.ar      1 <1>        -0.0400
     26 H26         1.6592   -7.7926   -4.5711 H         1 <1>         0.1400
     27 H27         1.8905   -8.3382   -2.2066 H         1 <1>         0.1200
     28 H28        -1.3685   -4.8964   -3.6545 H         1 <1>         0.1400
     29 H29        -1.9752   -4.9497    2.0453 H         1 <1>         0.4200
     30 H30        -3.5367   -5.2533   -1.0759 H         1 <1>         0.1400
     31 H31        -5.2458   -3.7271   -1.9737 H         1 <1>         0.1400
     32 H32        -5.7160   -1.5962   -0.8366 H         1 <1>         0.1300
     33 H33        -2.7697   -2.5066    2.1114 H         1 <1>         0.1300
     34 H34        -0.8340   -6.3105    2.8446 H         1 <1>         0.1400
     35 H35         0.7699   -8.0057    3.5776 H         1 <1>         0.1600
     36 H36         2.0426   -8.7460   -0.3060 H         1 <1>         0.1700
@<TRIPOS>BOND
     1    1    2 ar
     2    2    3 ar
     3    2    4 1
     4    4    9 ar
     5    4    5 ar
     6    5    6 ar
     7    5   26 1
     8    6    7 ar
     9    6   27 1
    10    7   25 ar
    11    7    8 ar
    12    8    9 ar
    13    8   10 ar
    14    9   28 1
    15   10   11 ar
    16   11   12 1
    17   11   20 ar
    18   12   13 1
    19   12   29 1
    20   13   19 ar
    21   13   14 ar
    22   14   15 ar
    23   14   30 1
    24   15   16 ar
    25   15   31 1
    26   16   17 ar
    27   16   32 1
    28   17   18 1
    29   17   19 ar
    30   19   33 1
    31   20   25 ar
    32   20   21 ar
    33   21   22 ar
    34   21   34 1
    35   22   23 ar
    36   22   35 1
    37   23   24 ar
    38   24   25 ar
    39   24   36 1
@<TRIPOS>Similarity
1.0432
@<TRIPOS>ShapeSim
0.7502
@<TRIPOS>PharmSim
0.2930
# END
# Name:		O=C(NC1=CC=CC=C1)C2=CC([N+]([O-])=O)=CC=C2Cl
# Created and modified by SHAFTS on Thu Mar 11 04:22:19 2021

# 

@<TRIPOS>MOLECULE
O=C(NC1=CC=CC=C1)C2=CC([N+]([O-])=O)=CC=C2Cl
   28    29     0
SMALL
USER_CHARGE


@<TRIPOS>ATOM
      1 O1         -2.2413   -4.5350   -2.4020 O.2       1 <1>        -0.4462
      2 C2         -1.7283   -5.1252   -1.4712 C.2       1 <1>         0.1365
      3 N3         -2.1777   -4.9247   -0.2164 N.am      1 <1>        -0.3052
      4 C4         -3.1675   -3.9672    0.0272 C.ar      1 <1>        -0.0547
      5 C5         -3.1458   -3.2275    1.2026 C.ar      1 <1>        -0.0733
      6 C6         -4.1247   -2.2827    1.4401 C.ar      1 <1>        -0.0990
      7 C7         -5.1256   -2.0728    0.5094 C.ar      1 <1>        -0.1041
      8 C8         -5.1503   -2.8079   -0.6616 C.ar      1 <1>        -0.0955
      9 C9         -4.1709   -3.7500   -0.9082 C.ar      1 <1>        -0.0674
     10 C10        -0.6163   -6.0666   -1.7159 C.ar      1 <1>         0.0780
     11 C11        -0.0287   -6.7503   -0.6500 C.ar      1 <1>        -0.0037
     12 C12         1.0092   -7.6277   -0.8855 C.ar      1 <1>         0.0927
     13 N13         1.6326   -8.3535    0.2439 N.pl3     1 <1>         0.0123
     14 O14         1.2290   -8.1756    1.3793 O.2       1 <1>        -0.2315
     15 O15         2.5492   -9.1287    0.0380 O.2       1 <1>        -0.2260
     16 C16         1.4688   -7.8317   -2.1746 C.ar      1 <1>        -0.0271
     17 C17         0.8926   -7.1580   -3.2362 C.ar      1 <1>        -0.0307
     18 C18        -0.1515   -6.2811   -3.0162 C.ar      1 <1>         0.0551
     19 Cl19       -0.8745   -5.4365   -4.3495 Cl        1 <1>        -0.0707
     20 H20        -1.8148   -5.4448    0.5176 H         1 <1>         0.3225
     21 H21        -2.3646   -3.3912    1.9300 H         1 <1>         0.1259
     22 H22        -4.1086   -1.7073    2.3541 H         1 <1>         0.1239
     23 H23        -5.8900   -1.3333    0.6976 H         1 <1>         0.1183
     24 H24        -5.9337   -2.6418   -1.3863 H         1 <1>         0.1248
     25 H25        -4.1908   -4.3239   -1.8228 H         1 <1>         0.1386
     26 H26        -0.3858   -6.5921    0.3570 H         1 <1>         0.1784
     27 H27         2.2819   -8.5201   -2.3526 H         1 <1>         0.1819
     28 H28         1.2566   -7.3217   -4.2398 H         1 <1>         0.1662
@<TRIPOS>BOND
     1    1    2 2
     2    2    3 am
     3    2   10 1
     4    3    4 1
     5    3   20 1
     6    4    9 ar
     7    4    5 ar
     8    5    6 ar
     9    5   21 1
    10    6    7 ar
    11    6   22 1
    12    7    8 ar
    13    7   23 1
    14    8    9 ar
    15    8   24 1
    16    9   25 1
    17   10   18 ar
    18   10   11 ar
    19   11   12 ar
    20   11   26 1
    21   12   13 1
    22   12   16 ar
    23   13   14 2
    24   13   15 2
    25   16   17 ar
    26   16   27 1
    27   17   18 ar
    28   17   28 1
    29   18   19 1
@<TRIPOS>Similarity
1.0426
@<TRIPOS>ShapeSim
0.7394
@<TRIPOS>PharmSim
0.3032
# END
# Name:		O=C1C[C@@H](C2=CC=CC=C2)OC3=CC(O)=CC(OC)=C13
# Created and modified by SHAFTS on Thu Mar 11 04:22:19 2021

# 

@<TRIPOS>MOLECULE
O=C1C[C@@H](C2=CC=CC=C2)OC3=CC(O)=CC(OC)=C13
   34    36     0
SMALL
USER_CHARGE


@<TRIPOS>ATOM
      1 C1          2.8578   -8.9508   -1.0680 C.3       1 <1>         0.0352
      2 O2          1.8116   -8.0952   -0.6035 O.3       1 <1>        -0.3960
      3 C3          1.0845   -7.4447   -1.5455 C.ar      1 <1>         0.0247
      4 C4          1.3626   -7.6258   -2.8884 C.ar      1 <1>        -0.0255
      5 C5          0.6163   -6.9558   -3.8502 C.ar      1 <1>        -0.0214
      6 O6          0.8941   -7.1417   -5.1651 O.3       1 <1>        -0.4247
      7 C7         -0.4114   -6.0982   -3.4795 C.ar      1 <1>        -0.0109
      8 C8         -0.7056   -5.9015   -2.1418 C.ar      1 <1>         0.0362
      9 C9          0.0402   -6.5870   -1.1650 C.ar      1 <1>         0.0684
     10 C10        -0.2859   -6.3870    0.2513 C.2       1 <1>         0.0871
     11 O11         0.1668   -7.1062    1.1179 O.2       1 <1>        -0.4551
     12 C12        -1.2190   -5.2347    0.5771 C.3       1 <1>         0.0693
     13 C13        -2.3091   -5.2134   -0.5044 C.3       1 <1>         0.0642
     14 H14        -2.8649   -6.1507   -0.4791 H         1 <1>         0.1406
     15 C15        -3.2494   -4.0640   -0.2482 C.ar      1 <1>        -0.0681
     16 C16        -2.9454   -2.8027   -0.7253 C.ar      1 <1>        -0.0902
     17 C17        -3.8079   -1.7484   -0.4903 C.ar      1 <1>        -0.1009
     18 C18        -4.9748   -1.9554    0.2214 C.ar      1 <1>        -0.1046
     19 C19        -5.2792   -3.2169    0.6977 C.ar      1 <1>        -0.1025
     20 C20        -4.4188   -4.2721    0.4590 C.ar      1 <1>        -0.0923
     21 O21        -1.7035   -5.0588   -1.7860 O.3       1 <1>        -0.3825
     22 H22         3.5774   -8.3665   -1.6415 H         1 <1>         0.0931
     23 H23         3.3589   -9.4081   -0.2148 H         1 <1>         0.1292
     24 H24         2.4352   -9.7304   -1.7018 H         1 <1>         0.0931
     25 H25         2.1607   -8.2882   -3.1896 H         1 <1>         0.1158
     26 H26         0.4033   -7.8689   -5.5719 H         1 <1>         0.3680
     27 H27        -0.9824   -5.5830   -4.2377 H         1 <1>         0.1385
     28 H28        -1.6712   -5.3889    1.5569 H         1 <1>         0.1028
     29 H29        -0.6666   -4.2951    0.5660 H         1 <1>         0.1100
     30 H30        -2.0337   -2.6410   -1.2813 H         1 <1>         0.1288
     31 H31        -3.5700   -0.7628   -0.8624 H         1 <1>         0.1210
     32 H32        -5.6483   -1.1316    0.4056 H         1 <1>         0.1218
     33 H33        -6.1907   -3.3785    1.2540 H         1 <1>         0.1205
     34 H34        -4.6567   -5.2577    0.8311 H         1 <1>         0.1262
@<TRIPOS>BOND
     1    1    2 1
     2    1   22 1
     3    1   23 1
     4    1   24 1
     5    2    3 1
     6    3    9 ar
     7    3    4 ar
     8    4    5 ar
     9    4   25 1
    10    5    6 1
    11    5    7 ar
    12    6   26 1
    13    7    8 ar
    14    7   27 1
    15    8   21 1
    16    8    9 ar
    17    9   10 1
    18   10   11 2
    19   10   12 1
    20   12   13 1
    21   12   28 1
    22   12   29 1
    23   13   14 1
    24   13   15 1
    25   13   21 1
    26   15   20 ar
    27   15   16 ar
    28   16   17 ar
    29   16   30 1
    30   17   18 ar
    31   17   31 1
    32   18   19 ar
    33   18   32 1
    34   19   20 ar
    35   19   33 1
    36   20   34 1
@<TRIPOS>Similarity
1.0413
@<TRIPOS>ShapeSim
0.7935
@<TRIPOS>PharmSim
0.2478
# END
# Name:		C1=CC(=C(C=C1C2=C(C(=O)C3=C(O2)C=C(C=C3)O)O)O)O
# Created and modified by SHAFTS on Thu Mar 11 04:22:19 2021

# 

@<TRIPOS>MOLECULE
C1=CC(=C(C=C1C2=C(C(=O)C3=C(O2)C=C(C=C3)O)O)O)O
   30    32     0
SMALL
USER_CHARGE


@<TRIPOS>ATOM
      1 O1         -0.9020   -1.3172   -1.3875 O.2       1 <1>        -0.4958
      2 C2         -1.3009   -2.4699   -1.3448 C.2       1 <1>         0.0861
      3 C3         -2.6213   -2.8031   -0.7809 C.ar      1 <1>         0.0070
      4 C4         -3.4637   -1.8122   -0.2755 C.ar      1 <1>        -0.0904
      5 C5         -4.6814   -2.1553    0.2398 C.ar      1 <1>        -0.0682
      6 C6         -5.0857   -3.4880    0.2637 C.ar      1 <1>        -0.0671
      7 O7         -6.2984   -3.8143    0.7793 O.3       1 <1>        -0.5672
      8 C8         -4.2611   -4.4831   -0.2346 C.ar      1 <1>        -0.0287
      9 C9         -3.0213   -4.1506   -0.7613 C.ar      1 <1>         0.0240
     10 O10        -2.2013   -5.1025   -1.2526 O.3       1 <1>        -0.3376
     11 C11        -0.9949   -4.8145   -1.7700 C.2       1 <1>         0.0857
     12 C12        -0.1622   -5.9166   -2.2855 C.ar      1 <1>        -0.0079
     13 C13         0.0189   -7.0734   -1.5230 C.ar      1 <1>        -0.0621
     14 C14         0.7980   -8.1028   -2.0069 C.ar      1 <1>        -0.0531
     15 C15         1.4037   -7.9935   -3.2504 C.ar      1 <1>        -0.0023
     16 O16         2.1704   -9.0110   -3.7226 O.3       1 <1>        -0.4306
     17 C17         1.2270   -6.8425   -4.0170 C.ar      1 <1>         0.0057
     18 O18         1.8219   -6.7392   -5.2355 O.3       1 <1>        -0.4302
     19 C19         0.4436   -5.8091   -3.5411 C.ar      1 <1>        -0.0265
     20 C20        -0.5149   -3.5404   -1.8413 C.2       1 <1>         0.0845
     21 O21         0.7137   -3.2992   -2.3747 O.3       1 <1>        -0.4195
     22 H22        -3.1539   -0.7776   -0.2914 H         1 <1>         0.1335
     23 H23        -5.3342   -1.3891    0.6311 H         1 <1>         0.0928
     24 H24        -4.5816   -5.5143   -0.2125 H         1 <1>         0.1026
     25 H25        -0.4511   -7.1610   -0.5545 H         1 <1>         0.1427
     26 H26         0.9375   -8.9963   -1.4164 H         1 <1>         0.1366
     27 H27         1.6804   -9.6665   -4.2376 H         1 <1>         0.3567
     28 H28         1.2819   -7.0704   -5.9661 H         1 <1>         0.3565
     29 H29         0.3060   -4.9169   -4.1339 H         1 <1>         0.1523
     30 H30         0.9636   -2.3651   -2.3804 H         1 <1>         0.3704
@<TRIPOS>BOND
     1    1    2 2
     2    2   20 1
     3    2    3 1
     4    3    9 ar
     5    3    4 ar
     6    4    5 ar
     7    4   22 1
     8    5    6 ar
     9    5   23 1
    10    6    7 1
    11    6    8 ar
    12    8    9 ar
    13    8   24 1
    14    9   10 1
    15   10   11 1
    16   11   12 1
    17   11   20 2
    18   12   19 ar
    19   12   13 ar
    20   13   14 ar
    21   13   25 1
    22   14   15 ar
    23   14   26 1
    24   15   16 1
    25   15   17 ar
    26   16   27 1
    27   17   18 1
    28   17   19 ar
    29   18   28 1
    30   19   29 1
    31   20   21 1
    32   21   30 1
@<TRIPOS>Similarity
1.0394
@<TRIPOS>ShapeSim
0.6784
@<TRIPOS>PharmSim
0.3610
# END
# Name:		C1=CC(=C(C=C1C2=C(C(=O)C3=C(O2)C=C(C=C3)O)O)O)O
# Created and modified by SHAFTS on Thu Mar 11 04:22:19 2021

# 

@<TRIPOS>MOLECULE
C1=CC(=C(C=C1C2=C(C(=O)C3=C(O2)C=C(C=C3)O)O)O)O
   30    32     0
SMALL
USER_CHARGE


@<TRIPOS>ATOM
      1 O1         -0.9020   -1.3172   -1.3875 O.2       1 <1>        -0.4958
      2 C2         -1.3009   -2.4699   -1.3448 C.2       1 <1>         0.0861
      3 C3         -2.6213   -2.8031   -0.7809 C.ar      1 <1>         0.0070
      4 C4         -3.4637   -1.8122   -0.2755 C.ar      1 <1>        -0.0904
      5 C5         -4.6814   -2.1553    0.2398 C.ar      1 <1>        -0.0682
      6 C6         -5.0857   -3.4880    0.2637 C.ar      1 <1>        -0.0671
      7 O7         -6.2984   -3.8143    0.7793 O.3       1 <1>        -0.5672
      8 C8         -4.2611   -4.4831   -0.2346 C.ar      1 <1>        -0.0287
      9 C9         -3.0213   -4.1506   -0.7613 C.ar      1 <1>         0.0240
     10 O10        -2.2013   -5.1025   -1.2526 O.3       1 <1>        -0.3376
     11 C11        -0.9949   -4.8145   -1.7700 C.2       1 <1>         0.0857
     12 C12        -0.1622   -5.9166   -2.2855 C.ar      1 <1>        -0.0079
     13 C13         0.0189   -7.0734   -1.5230 C.ar      1 <1>        -0.0621
     14 C14         0.7980   -8.1028   -2.0069 C.ar      1 <1>        -0.0531
     15 C15         1.4037   -7.9935   -3.2504 C.ar      1 <1>        -0.0023
     16 O16         2.1704   -9.0110   -3.7226 O.3       1 <1>        -0.4306
     17 C17         1.2270   -6.8425   -4.0170 C.ar      1 <1>         0.0057
     18 O18         1.8219   -6.7392   -5.2355 O.3       1 <1>        -0.4302
     19 C19         0.4436   -5.8091   -3.5411 C.ar      1 <1>        -0.0265
     20 C20        -0.5149   -3.5404   -1.8413 C.2       1 <1>         0.0845
     21 O21         0.7137   -3.2992   -2.3747 O.3       1 <1>        -0.4195
     22 H22        -3.1539   -0.7776   -0.2914 H         1 <1>         0.1335
     23 H23        -5.3342   -1.3891    0.6311 H         1 <1>         0.0928
     24 H24        -4.5816   -5.5143   -0.2125 H         1 <1>         0.1026
     25 H25        -0.4511   -7.1610   -0.5545 H         1 <1>         0.1427
     26 H26         0.9375   -8.9963   -1.4164 H         1 <1>         0.1366
     27 H27         1.6804   -9.6665   -4.2376 H         1 <1>         0.3567
     28 H28         1.2819   -7.0704   -5.9661 H         1 <1>         0.3565
     29 H29         0.3060   -4.9169   -4.1339 H         1 <1>         0.1523
     30 H30         0.9636   -2.3651   -2.3804 H         1 <1>         0.3704
@<TRIPOS>BOND
     1    1    2 2
     2    2   20 1
     3    2    3 1
     4    3    9 ar
     5    3    4 ar
     6    4    5 ar
     7    4   22 1
     8    5    6 ar
     9    5   23 1
    10    6    7 1
    11    6    8 ar
    12    8    9 ar
    13    8   24 1
    14    9   10 1
    15   10   11 1
    16   11   12 1
    17   11   20 2
    18   12   19 ar
    19   12   13 ar
    20   13   14 ar
    21   13   25 1
    22   14   15 ar
    23   14   26 1
    24   15   16 1
    25   15   17 ar
    26   16   27 1
    27   17   18 1
    28   17   19 ar
    29   18   28 1
    30   19   29 1
    31   20   21 1
    32   21   30 1
@<TRIPOS>Similarity
1.0394
@<TRIPOS>ShapeSim
0.6784
@<TRIPOS>PharmSim
0.3610
# END
# Name:		OC1=CC=C(C(C(O)=C(C2=CC(O)=C(O)C=C2)O3)=O)C3=C1
# Created and modified by SHAFTS on Thu Mar 11 04:22:19 2021

# 

@<TRIPOS>MOLECULE
OC1=CC=C(C(C(O)=C(C2=CC(O)=C(O)C=C2)O3)=O)C3=C1
   30    32     0
SMALL
USER_CHARGE


@<TRIPOS>ATOM
      1 O1         -0.9020   -1.3172   -1.3875 O.2       1 <1>        -0.4958
      2 C2         -1.3009   -2.4699   -1.3448 C.2       1 <1>         0.0861
      3 C3         -2.6213   -2.8031   -0.7809 C.ar      1 <1>         0.0070
      4 C4         -3.4637   -1.8122   -0.2755 C.ar      1 <1>        -0.0904
      5 C5         -4.6814   -2.1553    0.2398 C.ar      1 <1>        -0.0682
      6 C6         -5.0857   -3.4880    0.2637 C.ar      1 <1>        -0.0671
      7 O7         -6.2984   -3.8143    0.7793 O.3       1 <1>        -0.5672
      8 C8         -4.2611   -4.4831   -0.2346 C.ar      1 <1>        -0.0287
      9 C9         -3.0213   -4.1506   -0.7613 C.ar      1 <1>         0.0240
     10 O10        -2.2013   -5.1025   -1.2526 O.3       1 <1>        -0.3376
     11 C11        -0.9949   -4.8145   -1.7700 C.2       1 <1>         0.0857
     12 C12        -0.1622   -5.9166   -2.2855 C.ar      1 <1>        -0.0079
     13 C13         0.0189   -7.0734   -1.5230 C.ar      1 <1>        -0.0621
     14 C14         0.7980   -8.1028   -2.0069 C.ar      1 <1>        -0.0531
     15 C15         1.4037   -7.9935   -3.2504 C.ar      1 <1>        -0.0023
     16 O16         2.1704   -9.0110   -3.7226 O.3       1 <1>        -0.4306
     17 C17         1.2270   -6.8425   -4.0170 C.ar      1 <1>         0.0057
     18 O18         1.8219   -6.7392   -5.2355 O.3       1 <1>        -0.4302
     19 C19         0.4436   -5.8091   -3.5411 C.ar      1 <1>        -0.0265
     20 C20        -0.5149   -3.5404   -1.8413 C.2       1 <1>         0.0845
     21 O21         0.7137   -3.2992   -2.3747 O.3       1 <1>        -0.4195
     22 H22        -3.1539   -0.7776   -0.2914 H         1 <1>         0.1335
     23 H23        -5.3342   -1.3891    0.6311 H         1 <1>         0.0928
     24 H24        -4.5816   -5.5143   -0.2125 H         1 <1>         0.1026
     25 H25        -0.4511   -7.1610   -0.5545 H         1 <1>         0.1427
     26 H26         0.9375   -8.9963   -1.4164 H         1 <1>         0.1366
     27 H27         1.6804   -9.6665   -4.2376 H         1 <1>         0.3567
     28 H28         1.2819   -7.0704   -5.9661 H         1 <1>         0.3565
     29 H29         0.3060   -4.9169   -4.1339 H         1 <1>         0.1523
     30 H30         0.9636   -2.3651   -2.3804 H         1 <1>         0.3704
@<TRIPOS>BOND
     1    1    2 2
     2    2   20 1
     3    2    3 1
     4    3    9 ar
     5    3    4 ar
     6    4    5 ar
     7    4   22 1
     8    5    6 ar
     9    5   23 1
    10    6    7 1
    11    6    8 ar
    12    8    9 ar
    13    8   24 1
    14    9   10 1
    15   10   11 1
    16   11   12 1
    17   11   20 2
    18   12   19 ar
    19   12   13 ar
    20   13   14 ar
    21   13   25 1
    22   14   15 ar
    23   14   26 1
    24   15   16 1
    25   15   17 ar
    26   16   27 1
    27   17   18 1
    28   17   19 ar
    29   18   28 1
    30   19   29 1
    31   20   21 1
    32   21   30 1
@<TRIPOS>Similarity
1.0394
@<TRIPOS>ShapeSim
0.6784
@<TRIPOS>PharmSim
0.3610
# END
# Name:		O=C1C(O)=C(C2=CC=C(O)C(O)=C2)OC3=CC(O)=CC=C13
# Created and modified by SHAFTS on Thu Mar 11 04:22:19 2021

# 

@<TRIPOS>MOLECULE
O=C1C(O)=C(C2=CC=C(O)C(O)=C2)OC3=CC(O)=CC=C13
   30    32     0
SMALL
USER_CHARGE


@<TRIPOS>ATOM
      1 O1         -0.9020   -1.3172   -1.3875 O.2       1 <1>        -0.4958
      2 C2         -1.3009   -2.4699   -1.3448 C.2       1 <1>         0.0861
      3 C3         -2.6213   -2.8031   -0.7809 C.ar      1 <1>         0.0070
      4 C4         -3.4637   -1.8122   -0.2755 C.ar      1 <1>        -0.0904
      5 C5         -4.6814   -2.1553    0.2398 C.ar      1 <1>        -0.0682
      6 C6         -5.0857   -3.4880    0.2637 C.ar      1 <1>        -0.0671
      7 O7         -6.2984   -3.8143    0.7793 O.3       1 <1>        -0.5672
      8 C8         -4.2611   -4.4831   -0.2346 C.ar      1 <1>        -0.0287
      9 C9         -3.0213   -4.1506   -0.7613 C.ar      1 <1>         0.0240
     10 O10        -2.2013   -5.1025   -1.2526 O.3       1 <1>        -0.3376
     11 C11        -0.9949   -4.8145   -1.7700 C.2       1 <1>         0.0857
     12 C12        -0.1622   -5.9166   -2.2855 C.ar      1 <1>        -0.0079
     13 C13         0.0189   -7.0734   -1.5230 C.ar      1 <1>        -0.0621
     14 C14         0.7980   -8.1028   -2.0069 C.ar      1 <1>        -0.0531
     15 C15         1.4037   -7.9935   -3.2504 C.ar      1 <1>        -0.0023
     16 O16         2.1704   -9.0110   -3.7226 O.3       1 <1>        -0.4306
     17 C17         1.2270   -6.8425   -4.0170 C.ar      1 <1>         0.0057
     18 O18         1.8219   -6.7392   -5.2355 O.3       1 <1>        -0.4302
     19 C19         0.4436   -5.8091   -3.5411 C.ar      1 <1>        -0.0265
     20 C20        -0.5149   -3.5404   -1.8413 C.2       1 <1>         0.0845
     21 O21         0.7137   -3.2992   -2.3747 O.3       1 <1>        -0.4195
     22 H22        -3.1539   -0.7776   -0.2914 H         1 <1>         0.1335
     23 H23        -5.3342   -1.3891    0.6311 H         1 <1>         0.0928
     24 H24        -4.5816   -5.5143   -0.2125 H         1 <1>         0.1026
     25 H25        -0.4511   -7.1610   -0.5545 H         1 <1>         0.1427
     26 H26         0.9375   -8.9963   -1.4164 H         1 <1>         0.1366
     27 H27         1.6804   -9.6665   -4.2376 H         1 <1>         0.3567
     28 H28         1.2819   -7.0704   -5.9661 H         1 <1>         0.3565
     29 H29         0.3060   -4.9169   -4.1339 H         1 <1>         0.1523
     30 H30         0.9636   -2.3651   -2.3804 H         1 <1>         0.3704
@<TRIPOS>BOND
     1    1    2 2
     2    2   20 1
     3    2    3 1
     4    3    9 ar
     5    3    4 ar
     6    4    5 ar
     7    4   22 1
     8    5    6 ar
     9    5   23 1
    10    6    7 1
    11    6    8 ar
    12    8    9 ar
    13    8   24 1
    14    9   10 1
    15   10   11 1
    16   11   12 1
    17   11   20 2
    18   12   19 ar
    19   12   13 ar
    20   13   14 ar
    21   13   25 1
    22   14   15 ar
    23   14   26 1
    24   15   16 1
    25   15   17 ar
    26   16   27 1
    27   17   18 1
    28   17   19 ar
    29   18   28 1
    30   19   29 1
    31   20   21 1
    32   21   30 1
@<TRIPOS>Similarity
1.0394
@<TRIPOS>ShapeSim
0.6784
@<TRIPOS>PharmSim
0.3610
# END
# Name:		O=C1C(O)=C(C2=CC=C(O)C(O)=C2)OC3=CC(O)=CC=C13
# Created and modified by SHAFTS on Thu Mar 11 04:22:19 2021

# 

@<TRIPOS>MOLECULE
O=C1C(O)=C(C2=CC=C(O)C(O)=C2)OC3=CC(O)=CC=C13
   30    32     0
SMALL
USER_CHARGE


@<TRIPOS>ATOM
      1 O1         -0.9020   -1.3172   -1.3875 O.2       1 <1>        -0.4958
      2 C2         -1.3009   -2.4699   -1.3448 C.2       1 <1>         0.0861
      3 C3         -2.6213   -2.8031   -0.7809 C.ar      1 <1>         0.0070
      4 C4         -3.4637   -1.8122   -0.2755 C.ar      1 <1>        -0.0904
      5 C5         -4.6814   -2.1553    0.2398 C.ar      1 <1>        -0.0682
      6 C6         -5.0857   -3.4880    0.2637 C.ar      1 <1>        -0.0671
      7 O7         -6.2984   -3.8143    0.7793 O.3       1 <1>        -0.5672
      8 C8         -4.2611   -4.4831   -0.2346 C.ar      1 <1>        -0.0287
      9 C9         -3.0213   -4.1506   -0.7613 C.ar      1 <1>         0.0240
     10 O10        -2.2013   -5.1025   -1.2526 O.3       1 <1>        -0.3376
     11 C11        -0.9949   -4.8145   -1.7700 C.2       1 <1>         0.0857
     12 C12        -0.1622   -5.9166   -2.2855 C.ar      1 <1>        -0.0079
     13 C13         0.0189   -7.0734   -1.5230 C.ar      1 <1>        -0.0621
     14 C14         0.7980   -8.1028   -2.0069 C.ar      1 <1>        -0.0531
     15 C15         1.4037   -7.9935   -3.2504 C.ar      1 <1>        -0.0023
     16 O16         2.1704   -9.0110   -3.7226 O.3       1 <1>        -0.4306
     17 C17         1.2270   -6.8425   -4.0170 C.ar      1 <1>         0.0057
     18 O18         1.8219   -6.7392   -5.2355 O.3       1 <1>        -0.4302
     19 C19         0.4436   -5.8091   -3.5411 C.ar      1 <1>        -0.0265
     20 C20        -0.5149   -3.5404   -1.8413 C.2       1 <1>         0.0845
     21 O21         0.7137   -3.2992   -2.3747 O.3       1 <1>        -0.4195
     22 H22        -3.1539   -0.7776   -0.2914 H         1 <1>         0.1335
     23 H23        -5.3342   -1.3891    0.6311 H         1 <1>         0.0928
     24 H24        -4.5816   -5.5143   -0.2125 H         1 <1>         0.1026
     25 H25        -0.4511   -7.1610   -0.5545 H         1 <1>         0.1427
     26 H26         0.9375   -8.9963   -1.4164 H         1 <1>         0.1366
     27 H27         1.6804   -9.6665   -4.2376 H         1 <1>         0.3567
     28 H28         1.2819   -7.0704   -5.9661 H         1 <1>         0.3565
     29 H29         0.3060   -4.9169   -4.1339 H         1 <1>         0.1523
     30 H30         0.9636   -2.3651   -2.3804 H         1 <1>         0.3704
@<TRIPOS>BOND
     1    1    2 2
     2    2   20 1
     3    2    3 1
     4    3    9 ar
     5    3    4 ar
     6    4    5 ar
     7    4   22 1
     8    5    6 ar
     9    5   23 1
    10    6    7 1
    11    6    8 ar
    12    8    9 ar
    13    8   24 1
    14    9   10 1
    15   10   11 1
    16   11   12 1
    17   11   20 2
    18   12   19 ar
    19   12   13 ar
    20   13   14 ar
    21   13   25 1
    22   14   15 ar
    23   14   26 1
    24   15   16 1
    25   15   17 ar
    26   16   27 1
    27   17   18 1
    28   17   19 ar
    29   18   28 1
    30   19   29 1
    31   20   21 1
    32   21   30 1
@<TRIPOS>Similarity
1.0394
@<TRIPOS>ShapeSim
0.6784
@<TRIPOS>PharmSim
0.3610
# END
# Name:		O=C1C(O)=C(C2=CC=C(O)C(O)=C2)OC3=CC(O)=CC=C13
# Created and modified by SHAFTS on Thu Mar 11 04:22:19 2021

# 

@<TRIPOS>MOLECULE
O=C1C(O)=C(C2=CC=C(O)C(O)=C2)OC3=CC(O)=CC=C13
   30    32     0
SMALL
USER_CHARGE


@<TRIPOS>ATOM
      1 O1         -0.9020   -1.3172   -1.3875 O.2       1 <1>        -0.4958
      2 C2         -1.3009   -2.4699   -1.3448 C.2       1 <1>         0.0861
      3 C3         -2.6213   -2.8031   -0.7809 C.ar      1 <1>         0.0070
      4 C4         -3.4637   -1.8122   -0.2755 C.ar      1 <1>        -0.0904
      5 C5         -4.6814   -2.1553    0.2398 C.ar      1 <1>        -0.0682
      6 C6         -5.0857   -3.4880    0.2637 C.ar      1 <1>        -0.0671
      7 O7         -6.2984   -3.8143    0.7793 O.3       1 <1>        -0.5672
      8 C8         -4.2611   -4.4831   -0.2346 C.ar      1 <1>        -0.0287
      9 C9         -3.0213   -4.1506   -0.7613 C.ar      1 <1>         0.0240
     10 O10        -2.2013   -5.1025   -1.2526 O.3       1 <1>        -0.3376
     11 C11        -0.9949   -4.8145   -1.7700 C.2       1 <1>         0.0857
     12 C12        -0.1622   -5.9166   -2.2855 C.ar      1 <1>        -0.0079
     13 C13         0.0189   -7.0734   -1.5230 C.ar      1 <1>        -0.0621
     14 C14         0.7980   -8.1028   -2.0069 C.ar      1 <1>        -0.0531
     15 C15         1.4037   -7.9935   -3.2504 C.ar      1 <1>        -0.0023
     16 O16         2.1704   -9.0110   -3.7226 O.3       1 <1>        -0.4306
     17 C17         1.2270   -6.8425   -4.0170 C.ar      1 <1>         0.0057
     18 O18         1.8219   -6.7392   -5.2355 O.3       1 <1>        -0.4302
     19 C19         0.4436   -5.8091   -3.5411 C.ar      1 <1>        -0.0265
     20 C20        -0.5149   -3.5404   -1.8413 C.2       1 <1>         0.0845
     21 O21         0.7137   -3.2992   -2.3747 O.3       1 <1>        -0.4195
     22 H22        -3.1539   -0.7776   -0.2914 H         1 <1>         0.1335
     23 H23        -5.3342   -1.3891    0.6311 H         1 <1>         0.0928
     24 H24        -4.5816   -5.5143   -0.2125 H         1 <1>         0.1026
     25 H25        -0.4511   -7.1610   -0.5545 H         1 <1>         0.1427
     26 H26         0.9375   -8.9963   -1.4164 H         1 <1>         0.1366
     27 H27         1.6804   -9.6665   -4.2376 H         1 <1>         0.3567
     28 H28         1.2819   -7.0704   -5.9661 H         1 <1>         0.3565
     29 H29         0.3060   -4.9169   -4.1339 H         1 <1>         0.1523
     30 H30         0.9636   -2.3651   -2.3804 H         1 <1>         0.3704
@<TRIPOS>BOND
     1    1    2 2
     2    2   20 1
     3    2    3 1
     4    3    9 ar
     5    3    4 ar
     6    4    5 ar
     7    4   22 1
     8    5    6 ar
     9    5   23 1
    10    6    7 1
    11    6    8 ar
    12    8    9 ar
    13    8   24 1
    14    9   10 1
    15   10   11 1
    16   11   12 1
    17   11   20 2
    18   12   19 ar
    19   12   13 ar
    20   13   14 ar
    21   13   25 1
    22   14   15 ar
    23   14   26 1
    24   15   16 1
    25   15   17 ar
    26   16   27 1
    27   17   18 1
    28   17   19 ar
    29   18   28 1
    30   19   29 1
    31   20   21 1
    32   21   30 1
@<TRIPOS>Similarity
1.0394
@<TRIPOS>ShapeSim
0.6784
@<TRIPOS>PharmSim
0.3610
# END
# Name:		C1=CC(=C(C=C1C2=C(C(=O)C3=C(O2)C=C(C=C3)O)O)O)O
# Created and modified by SHAFTS on Thu Mar 11 04:22:19 2021

# 

@<TRIPOS>MOLECULE
C1=CC(=C(C=C1C2=C(C(=O)C3=C(O2)C=C(C=C3)O)O)O)O
   30    32     0
SMALL
USER_CHARGE


@<TRIPOS>ATOM
      1 O1         -0.9020   -1.3172   -1.3875 O.2       1 <1>        -0.4958
      2 C2         -1.3009   -2.4699   -1.3448 C.2       1 <1>         0.0861
      3 C3         -2.6213   -2.8031   -0.7809 C.ar      1 <1>         0.0070
      4 C4         -3.4637   -1.8122   -0.2755 C.ar      1 <1>        -0.0904
      5 C5         -4.6814   -2.1553    0.2398 C.ar      1 <1>        -0.0682
      6 C6         -5.0857   -3.4880    0.2637 C.ar      1 <1>        -0.0671
      7 O7         -6.2984   -3.8143    0.7793 O.3       1 <1>        -0.5672
      8 C8         -4.2611   -4.4831   -0.2346 C.ar      1 <1>        -0.0287
      9 C9         -3.0213   -4.1506   -0.7613 C.ar      1 <1>         0.0240
     10 O10        -2.2013   -5.1025   -1.2526 O.3       1 <1>        -0.3376
     11 C11        -0.9949   -4.8145   -1.7700 C.2       1 <1>         0.0857
     12 C12        -0.1622   -5.9166   -2.2855 C.ar      1 <1>        -0.0079
     13 C13         0.0189   -7.0734   -1.5230 C.ar      1 <1>        -0.0621
     14 C14         0.7980   -8.1028   -2.0069 C.ar      1 <1>        -0.0531
     15 C15         1.4037   -7.9935   -3.2504 C.ar      1 <1>        -0.0023
     16 O16         2.1704   -9.0110   -3.7226 O.3       1 <1>        -0.4306
     17 C17         1.2270   -6.8425   -4.0170 C.ar      1 <1>         0.0057
     18 O18         1.8219   -6.7392   -5.2355 O.3       1 <1>        -0.4302
     19 C19         0.4436   -5.8091   -3.5411 C.ar      1 <1>        -0.0265
     20 C20        -0.5149   -3.5404   -1.8413 C.2       1 <1>         0.0845
     21 O21         0.7137   -3.2992   -2.3747 O.3       1 <1>        -0.4195
     22 H22        -3.1539   -0.7776   -0.2914 H         1 <1>         0.1335
     23 H23        -5.3342   -1.3891    0.6311 H         1 <1>         0.0928
     24 H24        -4.5816   -5.5143   -0.2125 H         1 <1>         0.1026
     25 H25        -0.4511   -7.1610   -0.5545 H         1 <1>         0.1427
     26 H26         0.9375   -8.9963   -1.4164 H         1 <1>         0.1366
     27 H27         1.6804   -9.6665   -4.2376 H         1 <1>         0.3567
     28 H28         1.2819   -7.0704   -5.9661 H         1 <1>         0.3565
     29 H29         0.3060   -4.9169   -4.1339 H         1 <1>         0.1523
     30 H30         0.9636   -2.3651   -2.3804 H         1 <1>         0.3704
@<TRIPOS>BOND
     1    1    2 2
     2    2   20 1
     3    2    3 1
     4    3    9 ar
     5    3    4 ar
     6    4    5 ar
     7    4   22 1
     8    5    6 ar
     9    5   23 1
    10    6    7 1
    11    6    8 ar
    12    8    9 ar
    13    8   24 1
    14    9   10 1
    15   10   11 1
    16   11   12 1
    17   11   20 2
    18   12   19 ar
    19   12   13 ar
    20   13   14 ar
    21   13   25 1
    22   14   15 ar
    23   14   26 1
    24   15   16 1
    25   15   17 ar
    26   16   27 1
    27   17   18 1
    28   17   19 ar
    29   18   28 1
    30   19   29 1
    31   20   21 1
    32   21   30 1
@<TRIPOS>Similarity
1.0394
@<TRIPOS>ShapeSim
0.6784
@<TRIPOS>PharmSim
0.3610
# END
# Name:		CC(C1=CC(=CC=C1)C(=O)C2=CC=CC=C2)C(=O)O
# Created and modified by SHAFTS on Thu Mar 11 04:22:19 2021

# 

@<TRIPOS>MOLECULE
CC(C1=CC(=CC=C1)C(=O)C2=CC=CC=C2)C(=O)O
   32    33     0
SMALL
USER_CHARGE


@<TRIPOS>ATOM
      1 C1          0.5774   -6.8698   -2.5361 C.3       1 <1>        -0.1100
      2 C2          0.0219   -6.4874   -1.1627 C.3       1 <1>        -0.1300
      3 H3         -1.0551   -6.6541   -1.1472 H         1 <1>         0.0700
      4 C4          0.6768   -7.3346   -0.1022 C.2       1 <1>         0.5000
      5 O5          1.5105   -8.1671   -0.4159 O.co2     1 <1>        -0.5000
      6 O6          0.3728   -7.1875    1.0693 O.co2     1 <1>        -0.5000
      7 C7          0.3090   -5.0330   -0.8919 C.ar      1 <1>        -0.0400
      8 C8          1.6162   -4.5803   -0.8678 C.ar      1 <1>        -0.0800
      9 C9          1.8891   -3.2462   -0.6200 C.ar      1 <1>        -0.1300
     10 C10         0.8581   -2.3585   -0.3951 C.ar      1 <1>        -0.0800
     11 C11        -0.4642   -2.8085   -0.4183 C.ar      1 <1>        -0.1700
     12 C12        -1.5742   -1.8633   -0.1782 C.2       1 <1>         0.4500
     13 O13        -1.3504   -0.6714   -0.0964 O.2       1 <1>        -0.4600
     14 C14        -2.9560   -2.3669   -0.0374 C.ar      1 <1>        -0.1500
     15 C15        -3.1937   -3.6055    0.5630 C.ar      1 <1>        -0.0800
     16 C16        -4.4862   -4.0693    0.6914 C.ar      1 <1>        -0.1300
     17 C17        -5.5463   -3.3106    0.2272 C.ar      1 <1>        -0.1000
     18 C18        -5.3182   -2.0826   -0.3687 C.ar      1 <1>        -0.1300
     19 C19        -4.0312   -1.6040   -0.4991 C.ar      1 <1>        -0.0700
     20 C20        -0.7325   -4.1550   -0.6743 C.ar      1 <1>        -0.0800
     21 H21         0.3698   -7.9217   -2.7319 H         1 <1>         0.0600
     22 H22         0.1038   -6.2571   -3.3030 H         1 <1>         0.0300
     23 H23         1.6545   -6.7030   -2.5516 H         1 <1>         0.0500
     24 H24         2.4276   -5.2713   -1.0430 H         1 <1>         0.1300
     25 H25         2.9119   -2.8997   -0.6023 H         1 <1>         0.1200
     26 H26         1.0724   -1.3179   -0.2010 H         1 <1>         0.1300
     27 H27        -2.3671   -4.1988    0.9255 H         1 <1>         0.1400
     28 H28        -4.6713   -5.0269    1.1552 H         1 <1>         0.1300
     29 H29        -6.5564   -3.6787    0.3300 H         1 <1>         0.1300
     30 H30        -6.1502   -1.4956   -0.7288 H         1 <1>         0.1300
     31 H31        -3.8546   -0.6455   -0.9643 H         1 <1>         0.1300
     32 H32        -1.7525   -4.5095   -0.6940 H         1 <1>         0.1300
@<TRIPOS>BOND
     1    1    2 1
     2    1   21 1
     3    1   22 1
     4    1   23 1
     5    2    3 1
     6    2    4 1
     7    2    7 1
     8    4    5 ar
     9    4    6 ar
    10    7   20 ar
    11    7    8 ar
    12    8    9 ar
    13    8   24 1
    14    9   10 ar
    15    9   25 1
    16   10   11 ar
    17   10   26 1
    18   11   12 1
    19   11   20 ar
    20   12   13 2
    21   12   14 1
    22   14   19 ar
    23   14   15 ar
    24   15   16 ar
    25   15   27 1
    26   16   17 ar
    27   16   28 1
    28   17   18 ar
    29   17   29 1
    30   18   19 ar
    31   18   30 1
    32   19   31 1
    33   20   32 1
@<TRIPOS>Similarity
1.0392
@<TRIPOS>ShapeSim
0.6667
@<TRIPOS>PharmSim
0.3725
# END
# Name:		OC1=CC(C=C(C2=NN(C(C)C)C3=C2C(N)=NC=N3)N4)=C4C=C1
# Created and modified by SHAFTS on Thu Mar 11 04:22:19 2021

# 

@<TRIPOS>MOLECULE
OC1=CC(C=C(C2=NN(C(C)C)C3=C2C(N)=NC=N3)N4)=C4C=C1
   39    42     0
SMALL
USER_CHARGE


@<TRIPOS>ATOM
      1 C1         -0.3545   -7.6600   -6.4817 C.3       1 <1>        -0.0325
      2 C2          0.8212   -7.0534   -5.7133 C.3       1 <1>         0.0085
      3 C3          1.2710   -5.7643   -6.4038 C.3       1 <1>        -0.0325
      4 N4          0.4049   -6.7528   -4.3413 N.pl3     1 <1>        -0.2785
      5 N5         -0.6330   -5.8856   -3.9838 N.2       1 <1>        -0.2782
      6 C6         -0.7463   -5.8409   -2.6756 C.2       1 <1>         0.0704
      7 C7         -1.7237   -5.0420   -1.9084 C.2       1 <1>        -0.0007
      8 C8         -3.0297   -4.8761   -2.2381 C.2       1 <1>        -0.0438
      9 C9         -3.6229   -4.0190   -1.2132 C.ar      1 <1>        -0.0534
     10 C10        -4.9065   -3.5040   -1.0084 C.ar      1 <1>        -0.0540
     11 C11        -5.1527   -2.7019    0.0878 C.ar      1 <1>        -0.0360
     12 O12        -6.3992   -2.1982    0.2920 O.3       1 <1>        -0.4424
     13 C13        -4.1301   -2.4068    0.9854 C.ar      1 <1>        -0.0589
     14 C14        -2.8613   -2.9084    0.7940 C.ar      1 <1>        -0.0636
     15 C15        -2.5914   -3.7180   -0.3036 C.ar      1 <1>        -0.0576
     16 N16        -1.4514   -4.3567   -0.7468 N.pl3     1 <1>        -0.3521
     17 C17         0.2749   -6.7299   -2.1190 C.ar      1 <1>         0.0855
     18 C18         0.6616   -7.1092   -0.8237 C.ar      1 <1>         0.0049
     19 N19         0.0128   -6.6025    0.2859 N.pl3     1 <1>        -0.3617
     20 N20         1.6676   -7.9687   -0.6915 N.ar      1 <1>        -0.3433
     21 C21         2.2912   -8.4566   -1.7489 C.ar      1 <1>         0.0422
     22 N22         1.9638   -8.1301   -2.9799 N.ar      1 <1>        -0.3397
     23 C23         0.9651   -7.2794   -3.2153 C.ar      1 <1>         0.0539
     24 H24        -1.1815   -6.9501   -6.5003 H         1 <1>         0.0521
     25 H25        -0.0448   -7.8837   -7.5026 H         1 <1>         0.0593
     26 H26        -0.6750   -8.5785   -5.9898 H         1 <1>         0.0450
     27 H27         1.6482   -7.7633   -5.6948 H         1 <1>         0.1419
     28 H28         0.4441   -5.0544   -6.4223 H         1 <1>         0.0521
     29 H29         2.1086   -5.3321   -5.8563 H         1 <1>         0.0450
     30 H30         1.5809   -5.9879   -7.4246 H         1 <1>         0.0593
     31 H31        -3.5347   -5.2969   -3.0950 H         1 <1>         0.1533
     32 H32        -5.7007   -3.7321   -1.7039 H         1 <1>         0.1380
     33 H33        -6.9705   -2.7667    0.8263 H         1 <1>         0.3531
     34 H34        -4.3333   -1.7782    1.8398 H         1 <1>         0.1397
     35 H35        -2.0759   -2.6725    1.4968 H         1 <1>         0.1324
     36 H36        -0.5878   -4.3266   -0.3062 H         1 <1>         0.3329
     37 H37        -0.8017   -6.0868    0.1781 H         1 <1>         0.2810
     38 H38         0.3717   -6.7626    1.1727 H         1 <1>         0.2810
     39 H39         3.1034   -9.1518   -1.5960 H         1 <1>         0.3176
@<TRIPOS>BOND
     1    1    2 1
     2    1   24 1
     3    1   25 1
     4    1   26 1
     5    2    3 1
     6    2    4 1
     7    2   27 1
     8    3   28 1
     9    3   29 1
    10    3   30 1
    11    4   23 1
    12    4    5 1
    13    5    6 2
    14    6    7 1
    15    6   17 1
    16    7   16 1
    17    7    8 2
    18    8    9 1
    19    8   31 1
    20    9   15 ar
    21    9   10 ar
    22   10   11 ar
    23   10   32 1
    24   11   12 1
    25   11   13 ar
    26   12   33 1
    27   13   14 ar
    28   13   34 1
    29   14   15 ar
    30   14   35 1
    31   15   16 1
    32   16   36 1
    33   17   23 ar
    34   17   18 ar
    35   18   19 1
    36   18   20 ar
    37   19   37 1
    38   19   38 1
    39   20   21 ar
    40   21   22 ar
    41   21   39 1
    42   22   23 ar
@<TRIPOS>Similarity
1.0338
@<TRIPOS>ShapeSim
0.7096
@<TRIPOS>PharmSim
0.3242
# END
# Name:		CC(C)N1C2=NC=NC(=C2C(=N1)C3=CC4=C(N3)C=CC(=C4)O)N
# Created and modified by SHAFTS on Thu Mar 11 04:22:19 2021

# 

@<TRIPOS>MOLECULE
CC(C)N1C2=NC=NC(=C2C(=N1)C3=CC4=C(N3)C=CC(=C4)O)N
   39    42     0
SMALL
USER_CHARGE


@<TRIPOS>ATOM
      1 C1         -0.3545   -7.6600   -6.4817 C.3       1 <1>        -0.0325
      2 C2          0.8212   -7.0534   -5.7133 C.3       1 <1>         0.0085
      3 C3          1.2710   -5.7643   -6.4038 C.3       1 <1>        -0.0325
      4 N4          0.4049   -6.7528   -4.3413 N.pl3     1 <1>        -0.2785
      5 N5         -0.6330   -5.8856   -3.9838 N.2       1 <1>        -0.2782
      6 C6         -0.7463   -5.8409   -2.6756 C.2       1 <1>         0.0704
      7 C7         -1.7237   -5.0420   -1.9084 C.2       1 <1>        -0.0007
      8 C8         -3.0297   -4.8761   -2.2381 C.2       1 <1>        -0.0438
      9 C9         -3.6229   -4.0190   -1.2132 C.ar      1 <1>        -0.0534
     10 C10        -4.9065   -3.5040   -1.0084 C.ar      1 <1>        -0.0540
     11 C11        -5.1527   -2.7019    0.0878 C.ar      1 <1>        -0.0360
     12 O12        -6.3992   -2.1982    0.2920 O.3       1 <1>        -0.4424
     13 C13        -4.1301   -2.4068    0.9854 C.ar      1 <1>        -0.0589
     14 C14        -2.8613   -2.9084    0.7940 C.ar      1 <1>        -0.0636
     15 C15        -2.5914   -3.7180   -0.3036 C.ar      1 <1>        -0.0576
     16 N16        -1.4514   -4.3567   -0.7468 N.pl3     1 <1>        -0.3521
     17 C17         0.2749   -6.7299   -2.1190 C.ar      1 <1>         0.0855
     18 C18         0.6616   -7.1092   -0.8237 C.ar      1 <1>         0.0049
     19 N19         0.0128   -6.6025    0.2859 N.pl3     1 <1>        -0.3617
     20 N20         1.6676   -7.9687   -0.6915 N.ar      1 <1>        -0.3433
     21 C21         2.2912   -8.4566   -1.7489 C.ar      1 <1>         0.0422
     22 N22         1.9638   -8.1301   -2.9799 N.ar      1 <1>        -0.3397
     23 C23         0.9651   -7.2794   -3.2153 C.ar      1 <1>         0.0539
     24 H24        -1.1815   -6.9501   -6.5003 H         1 <1>         0.0521
     25 H25        -0.0448   -7.8837   -7.5026 H         1 <1>         0.0593
     26 H26        -0.6750   -8.5785   -5.9898 H         1 <1>         0.0450
     27 H27         1.6482   -7.7633   -5.6948 H         1 <1>         0.1419
     28 H28         0.4441   -5.0544   -6.4223 H         1 <1>         0.0521
     29 H29         2.1086   -5.3321   -5.8563 H         1 <1>         0.0450
     30 H30         1.5809   -5.9879   -7.4246 H         1 <1>         0.0593
     31 H31        -3.5347   -5.2969   -3.0950 H         1 <1>         0.1533
     32 H32        -5.7007   -3.7321   -1.7039 H         1 <1>         0.1380
     33 H33        -6.9705   -2.7667    0.8263 H         1 <1>         0.3531
     34 H34        -4.3333   -1.7782    1.8398 H         1 <1>         0.1397
     35 H35        -2.0759   -2.6725    1.4968 H         1 <1>         0.1324
     36 H36        -0.5878   -4.3266   -0.3062 H         1 <1>         0.3329
     37 H37        -0.8017   -6.0868    0.1781 H         1 <1>         0.2810
     38 H38         0.3717   -6.7626    1.1727 H         1 <1>         0.2810
     39 H39         3.1034   -9.1518   -1.5960 H         1 <1>         0.3176
@<TRIPOS>BOND
     1    1    2 1
     2    1   24 1
     3    1   25 1
     4    1   26 1
     5    2    3 1
     6    2    4 1
     7    2   27 1
     8    3   28 1
     9    3   29 1
    10    3   30 1
    11    4   23 1
    12    4    5 1
    13    5    6 2
    14    6    7 1
    15    6   17 1
    16    7   16 1
    17    7    8 2
    18    8    9 1
    19    8   31 1
    20    9   15 ar
    21    9   10 ar
    22   10   11 ar
    23   10   32 1
    24   11   12 1
    25   11   13 ar
    26   12   33 1
    27   13   14 ar
    28   13   34 1
    29   14   15 ar
    30   14   35 1
    31   15   16 1
    32   16   36 1
    33   17   23 ar
    34   17   18 ar
    35   18   19 1
    36   18   20 ar
    37   19   37 1
    38   19   38 1
    39   20   21 ar
    40   21   22 ar
    41   21   39 1
    42   22   23 ar
@<TRIPOS>Similarity
1.0338
@<TRIPOS>ShapeSim
0.7096
@<TRIPOS>PharmSim
0.3242
# END
# Name:		COC1=C(C=CC(=C1)C(=O)OC)O
# Created and modified by SHAFTS on Thu Mar 11 04:22:19 2021

# 

@<TRIPOS>MOLECULE
COC1=C(C=CC(=C1)C(=O)OC)O
   23    23     0
SMALL
USER_CHARGE


@<TRIPOS>ATOM
      1 C1         -1.0833   -7.2018    1.8157 C.3       1 <1>         0.0399
      2 O2         -0.2859   -7.3008    0.6062 O.3       1 <1>        -0.3510
      3 C3         -0.7993   -6.7512   -0.5117 C.2       1 <1>         0.1792
      4 O4         -1.8838   -6.2042   -0.4770 O.2       1 <1>        -0.4482
      5 C5         -0.0451   -6.8137   -1.7775 C.ar      1 <1>         0.0408
      6 C6          1.1993   -7.4473   -1.8206 C.ar      1 <1>        -0.0550
      7 C7          1.9028   -7.5047   -3.0042 C.ar      1 <1>        -0.0437
      8 C8          1.3779   -6.9341   -4.1556 C.ar      1 <1>         0.0171
      9 O9          2.0747   -6.9937   -5.3195 O.3       1 <1>        -0.4191
     10 C10         0.1363   -6.3001   -4.1199 C.ar      1 <1>         0.0362
     11 O11        -0.3750   -5.7419   -5.2498 O.3       1 <1>        -0.4085
     12 C12        -1.6515   -5.1090   -5.1405 C.3       1 <1>         0.0269
     13 C13        -0.5765   -6.2438   -2.9386 C.ar      1 <1>        -0.0223
     14 H14        -1.2505   -6.1518    2.0557 H         1 <1>         0.1023
     15 H15        -2.0423   -7.6961    1.6601 H         1 <1>         0.1023
     16 H16        -0.5557   -7.6831    2.6392 H         1 <1>         0.1312
     17 H17         1.6102   -7.8918   -0.9261 H         1 <1>         0.1487
     18 H18         2.8648   -7.9944   -3.0359 H         1 <1>         0.1481
     19 H19         1.8804   -7.7752   -5.8547 H         1 <1>         0.3690
     20 H20        -2.3920   -5.8387   -4.8133 H         1 <1>         0.0913
     21 H21        -1.5941   -4.2987   -4.4137 H         1 <1>         0.0913
     22 H22        -1.9419   -4.7067   -6.1110 H         1 <1>         0.1275
     23 H23        -1.5384   -5.7535   -2.9096 H         1 <1>         0.1462
@<TRIPOS>BOND
     1    1    2 1
     2    1   14 1
     3    1   15 1
     4    1   16 1
     5    2    3 1
     6    3    4 2
     7    3    5 1
     8    5   13 ar
     9    5    6 ar
    10    6    7 ar
    11    6   17 1
    12    7    8 ar
    13    7   18 1
    14    8    9 1
    15    8   10 ar
    16    9   19 1
    17   10   11 1
    18   10   13 ar
    19   11   12 1
    20   12   20 1
    21   12   21 1
    22   12   22 1
    23   13   23 1
@<TRIPOS>Similarity
1.0337
@<TRIPOS>ShapeSim
0.6154
@<TRIPOS>PharmSim
0.4183
# END
# Name:		O=C1N(C2=CC=CC=C2C)C(CN3C4=C(C(N)=NC=N4)N=C3)=NC5=CC=CC(C)=C51
# Created and modified by SHAFTS on Thu Mar 11 04:22:19 2021

# 

@<TRIPOS>MOLECULE
O=C1N(C2=CC=CC=C2C)C(CN3C4=C(C(N)=NC=N4)N=C3)=NC5=CC=CC(C)=C51
   49    53     0
SMALL
USER_CHARGE


@<TRIPOS>ATOM
      1 C1         -4.3097   -1.3317   -2.3889 C.3       1 <1>        -0.0318
      2 C2         -4.4816   -2.2040   -1.1720 C.ar      1 <1>        -0.0749
      3 C3         -5.7479   -2.5426   -0.7377 C.ar      1 <1>        -0.0881
      4 C4         -5.9066   -3.3426    0.3793 C.ar      1 <1>        -0.0942
      5 C5         -4.7986   -3.8061    1.0643 C.ar      1 <1>        -0.0883
      6 C6         -3.5292   -3.4708    0.6348 C.ar      1 <1>        -0.0610
      7 C7         -3.3665   -2.6726   -0.4894 C.ar      1 <1>        -0.0156
      8 N8         -2.0808   -2.3309   -0.9275 N.am      1 <1>        -0.2329
      9 C9         -1.4870   -1.2103   -0.4549 C.2       1 <1>         0.1560
     10 O10        -2.0486   -0.4875    0.3476 O.2       1 <1>        -0.4491
     11 C11        -0.1373   -0.8999   -0.9480 C.ar      1 <1>         0.0582
     12 C12         0.5604    0.2288   -0.5239 C.ar      1 <1>        -0.0770
     13 C13        -0.0615    1.1771    0.4687 C.3       1 <1>        -0.0301
     14 C14         1.8237    0.4716   -1.0181 C.ar      1 <1>        -0.0876
     15 C15         2.4033   -0.3978   -1.9324 C.ar      1 <1>        -0.0817
     16 C16         1.7304   -1.5187   -2.3646 C.ar      1 <1>        -0.0495
     17 C17         0.4496   -1.7869   -1.8783 C.ar      1 <1>        -0.0020
     18 N18        -0.2489   -2.8790   -2.2774 N.2       1 <1>        -0.3431
     19 C19        -1.4376   -3.1315   -1.8200 C.2       1 <1>         0.0814
     20 C20        -2.1466   -4.3662   -2.3136 C.3       1 <1>         0.1080
     21 N21        -1.2902   -5.0713   -3.2706 N.pl3     1 <1>        -0.2771
     22 C22        -1.3206   -4.9429   -4.6274 C.2       1 <1>         0.0374
     23 N23        -0.4237   -5.7158   -5.1674 N.2       1 <1>        -0.3612
     24 C24         0.2375   -6.3876   -4.1943 C.ar      1 <1>         0.0822
     25 C25         1.2776   -7.3322   -4.1774 C.ar      1 <1>         0.0286
     26 N26         1.8567   -7.7689   -5.3559 N.pl3     1 <1>        -0.3529
     27 N27         1.6925   -7.7962   -3.0031 N.ar      1 <1>        -0.3368
     28 C28         1.1461   -7.3849   -1.8735 C.ar      1 <1>         0.0380
     29 N29         0.1699   -6.5023   -1.8410 N.ar      1 <1>        -0.3456
     30 C30        -0.3065   -5.9777   -2.9652 C.ar      1 <1>         0.0537
     31 H31        -4.2541   -1.9575   -3.2795 H         1 <1>         0.0639
     32 H32        -5.1594   -0.6542   -2.4733 H         1 <1>         0.0639
     33 H33        -3.3912   -0.7525   -2.2939 H         1 <1>         0.0496
     34 H34        -6.6154   -2.1821   -1.2706 H         1 <1>         0.1260
     35 H35        -6.8980   -3.6056    0.7174 H         1 <1>         0.1280
     36 H36        -4.9257   -4.4307    1.9362 H         1 <1>         0.1251
     37 H37        -2.6641   -3.8329    1.1705 H         1 <1>         0.1370
     38 H38         0.0980    0.8013    1.4793 H         1 <1>         0.0640
     39 H39         0.3990    2.1601    0.3697 H         1 <1>         0.0569
     40 H40        -1.1312    1.2559    0.2748 H         1 <1>         0.0712
     41 H41         2.3673    1.3459   -0.6918 H         1 <1>         0.1285
     42 H42         3.3942   -0.1921   -2.3095 H         1 <1>         0.1405
     43 H43         2.1916   -2.1877   -3.0761 H         1 <1>         0.1440
     44 H44        -2.3652   -5.0213   -1.4704 H         1 <1>         0.1911
     45 H45        -3.0779   -4.0795   -2.8021 H         1 <1>         0.1911
     46 H46        -1.9907   -4.2956   -5.1736 H         1 <1>         0.2958
     47 H47         1.5453   -7.4225   -6.2068 H         1 <1>         0.2916
     48 H48         2.5739   -8.4214   -5.3313 H         1 <1>         0.2838
     49 H49         1.5137   -7.7880   -0.9414 H         1 <1>         0.3049
@<TRIPOS>BOND
     1    1    2 1
     2    1   31 1
     3    1   32 1
     4    1   33 1
     5    2    7 ar
     6    2    3 ar
     7    3    4 ar
     8    3   34 1
     9    4    5 ar
    10    4   35 1
    11    5    6 ar
    12    5   36 1
    13    6    7 ar
    14    6   37 1
    15    7    8 1
    16    8   19 1
    17    8    9 am
    18    9   10 2
    19    9   11 1
    20   11   17 ar
    21   11   12 ar
    22   12   13 1
    23   12   14 ar
    24   13   38 1
    25   13   39 1
    26   13   40 1
    27   14   15 ar
    28   14   41 1
    29   15   16 ar
    30   15   42 1
    31   16   17 ar
    32   16   43 1
    33   17   18 1
    34   18   19 2
    35   19   20 1
    36   20   21 1
    37   20   44 1
    38   20   45 1
    39   21   30 1
    40   21   22 1
    41   22   23 2
    42   22   46 1
    43   23   24 1
    44   24   30 ar
    45   24   25 ar
    46   25   26 1
    47   25   27 ar
    48   26   47 1
    49   26   48 1
    50   27   28 ar
    51   28   29 ar
    52   28   49 1
    53   29   30 ar
@<TRIPOS>Similarity
1.0332
@<TRIPOS>ShapeSim
0.6381
@<TRIPOS>PharmSim
0.3951
# END
# Name:		CC1=C2C(=CC=C1)N=C(N(C2=O)C3=CC=CC=C3C)CN4C=NC5=C(N=CN=C54)N
# Created and modified by SHAFTS on Thu Mar 11 04:22:19 2021

# 

@<TRIPOS>MOLECULE
CC1=C2C(=CC=C1)N=C(N(C2=O)C3=CC=CC=C3C)CN4C=NC5=C(N=CN=C54)N
   49    53     0
SMALL
USER_CHARGE


@<TRIPOS>ATOM
      1 C1         -4.3097   -1.3317   -2.3889 C.3       1 <1>        -0.0318
      2 C2         -4.4816   -2.2040   -1.1720 C.ar      1 <1>        -0.0749
      3 C3         -5.7479   -2.5426   -0.7377 C.ar      1 <1>        -0.0881
      4 C4         -5.9066   -3.3426    0.3793 C.ar      1 <1>        -0.0942
      5 C5         -4.7986   -3.8061    1.0643 C.ar      1 <1>        -0.0883
      6 C6         -3.5292   -3.4708    0.6348 C.ar      1 <1>        -0.0610
      7 C7         -3.3665   -2.6726   -0.4894 C.ar      1 <1>        -0.0156
      8 N8         -2.0808   -2.3309   -0.9275 N.am      1 <1>        -0.2329
      9 C9         -1.4870   -1.2103   -0.4549 C.2       1 <1>         0.1560
     10 O10        -2.0486   -0.4875    0.3476 O.2       1 <1>        -0.4491
     11 C11        -0.1373   -0.8999   -0.9480 C.ar      1 <1>         0.0582
     12 C12         0.5604    0.2288   -0.5239 C.ar      1 <1>        -0.0770
     13 C13        -0.0615    1.1771    0.4687 C.3       1 <1>        -0.0301
     14 C14         1.8237    0.4716   -1.0181 C.ar      1 <1>        -0.0876
     15 C15         2.4033   -0.3978   -1.9324 C.ar      1 <1>        -0.0817
     16 C16         1.7304   -1.5187   -2.3646 C.ar      1 <1>        -0.0495
     17 C17         0.4496   -1.7869   -1.8783 C.ar      1 <1>        -0.0020
     18 N18        -0.2489   -2.8790   -2.2774 N.2       1 <1>        -0.3431
     19 C19        -1.4376   -3.1315   -1.8200 C.2       1 <1>         0.0814
     20 C20        -2.1466   -4.3662   -2.3136 C.3       1 <1>         0.1080
     21 N21        -1.2902   -5.0713   -3.2706 N.pl3     1 <1>        -0.2771
     22 C22        -1.3206   -4.9429   -4.6274 C.2       1 <1>         0.0374
     23 N23        -0.4237   -5.7158   -5.1674 N.2       1 <1>        -0.3612
     24 C24         0.2375   -6.3876   -4.1943 C.ar      1 <1>         0.0822
     25 C25         1.2776   -7.3322   -4.1774 C.ar      1 <1>         0.0286
     26 N26         1.8567   -7.7689   -5.3559 N.pl3     1 <1>        -0.3529
     27 N27         1.6925   -7.7962   -3.0031 N.ar      1 <1>        -0.3368
     28 C28         1.1461   -7.3849   -1.8735 C.ar      1 <1>         0.0380
     29 N29         0.1699   -6.5023   -1.8410 N.ar      1 <1>        -0.3456
     30 C30        -0.3065   -5.9777   -2.9652 C.ar      1 <1>         0.0537
     31 H31        -4.2541   -1.9575   -3.2795 H         1 <1>         0.0639
     32 H32        -5.1594   -0.6542   -2.4733 H         1 <1>         0.0639
     33 H33        -3.3912   -0.7525   -2.2939 H         1 <1>         0.0496
     34 H34        -6.6154   -2.1821   -1.2706 H         1 <1>         0.1260
     35 H35        -6.8980   -3.6056    0.7174 H         1 <1>         0.1280
     36 H36        -4.9257   -4.4307    1.9362 H         1 <1>         0.1251
     37 H37        -2.6641   -3.8329    1.1705 H         1 <1>         0.1370
     38 H38         0.0980    0.8013    1.4793 H         1 <1>         0.0640
     39 H39         0.3990    2.1601    0.3697 H         1 <1>         0.0569
     40 H40        -1.1312    1.2559    0.2748 H         1 <1>         0.0712
     41 H41         2.3673    1.3459   -0.6918 H         1 <1>         0.1285
     42 H42         3.3942   -0.1921   -2.3095 H         1 <1>         0.1405
     43 H43         2.1916   -2.1877   -3.0761 H         1 <1>         0.1440
     44 H44        -2.3652   -5.0213   -1.4704 H         1 <1>         0.1911
     45 H45        -3.0779   -4.0795   -2.8021 H         1 <1>         0.1911
     46 H46        -1.9907   -4.2956   -5.1736 H         1 <1>         0.2958
     47 H47         1.5453   -7.4225   -6.2068 H         1 <1>         0.2916
     48 H48         2.5739   -8.4214   -5.3313 H         1 <1>         0.2838
     49 H49         1.5137   -7.7880   -0.9414 H         1 <1>         0.3049
@<TRIPOS>BOND
     1    1    2 1
     2    1   31 1
     3    1   32 1
     4    1   33 1
     5    2    7 ar
     6    2    3 ar
     7    3    4 ar
     8    3   34 1
     9    4    5 ar
    10    4   35 1
    11    5    6 ar
    12    5   36 1
    13    6    7 ar
    14    6   37 1
    15    7    8 1
    16    8   19 1
    17    8    9 am
    18    9   10 2
    19    9   11 1
    20   11   17 ar
    21   11   12 ar
    22   12   13 1
    23   12   14 ar
    24   13   38 1
    25   13   39 1
    26   13   40 1
    27   14   15 ar
    28   14   41 1
    29   15   16 ar
    30   15   42 1
    31   16   17 ar
    32   16   43 1
    33   17   18 1
    34   18   19 2
    35   19   20 1
    36   20   21 1
    37   20   44 1
    38   20   45 1
    39   21   30 1
    40   21   22 1
    41   22   23 2
    42   22   46 1
    43   23   24 1
    44   24   30 ar
    45   24   25 ar
    46   25   26 1
    47   25   27 ar
    48   26   47 1
    49   26   48 1
    50   27   28 ar
    51   28   29 ar
    52   28   49 1
    53   29   30 ar
@<TRIPOS>Similarity
1.0332
@<TRIPOS>ShapeSim
0.6381
@<TRIPOS>PharmSim
0.3951
# END
# Name:		C1=CC(=CC=C1CCC(=O)C2=C(C=C(C=C2O)O)O)O
# Created and modified by SHAFTS on Thu Mar 11 04:22:19 2021

# 

@<TRIPOS>MOLECULE
C1=CC(=CC=C1CCC(=O)C2=C(C=C(C=C2O)O)O)O
   34    35     0
SMALL
USER_CHARGE


@<TRIPOS>ATOM
      1 O1         -0.4809   -6.4541    0.2922 O.2       1 <1>        -0.4584
      2 C2         -0.7856   -6.0644   -0.8163 C.2       1 <1>         0.0848
      3 C3         -1.9571   -5.1328   -0.9918 C.3       1 <1>         0.0373
      4 C4         -2.5828   -4.8374    0.3728 C.3       1 <1>        -0.0255
      5 C5         -3.7543   -3.9058    0.1974 C.ar      1 <1>        -0.1117
      6 C6         -3.5605   -2.5375    0.2419 C.ar      1 <1>        -0.0968
      7 C7         -4.6328   -1.6814    0.0812 C.ar      1 <1>        -0.0718
      8 C8         -5.9046   -2.1956   -0.1254 C.ar      1 <1>        -0.0450
      9 O9         -6.9610   -1.3555   -0.2841 O.3       1 <1>        -0.4425
     10 C10        -6.0962   -3.5689   -0.1701 C.ar      1 <1>        -0.0718
     11 C11        -5.0199   -4.4207   -0.0137 C.ar      1 <1>        -0.0968
     12 C12        -0.0127   -6.4938   -1.9799 C.ar      1 <1>         0.0589
     13 C13        -0.3586   -6.0400   -3.2666 C.ar      1 <1>         0.0010
     14 O14        -1.4112   -5.2011   -3.4321 O.3       1 <1>        -0.4210
     15 C15         0.3785   -6.4518   -4.3607 C.ar      1 <1>        -0.0209
     16 C16         1.4575   -7.3108   -4.1936 C.ar      1 <1>        -0.0167
     17 O17         2.1750   -7.7095   -5.2739 O.3       1 <1>        -0.4268
     18 C18         1.8071   -7.7639   -2.9276 C.ar      1 <1>        -0.0188
     19 C19         1.0858   -7.3593   -1.8204 C.ar      1 <1>         0.0054
     20 O20         1.4289   -7.8028   -0.5856 O.3       1 <1>        -0.4154
     21 H21        -1.6161   -4.2015   -1.4443 H         1 <1>         0.0859
     22 H22        -2.6996   -5.6004   -1.6384 H         1 <1>         0.1003
     23 H23        -2.9237   -5.7686    0.8254 H         1 <1>         0.0691
     24 H24        -1.8403   -4.3698    1.0194 H         1 <1>         0.0691
     25 H25        -2.5702   -2.1378    0.4027 H         1 <1>         0.1252
     26 H26        -4.4811   -0.6127    0.1168 H         1 <1>         0.1249
     27 H27        -7.1285   -1.1034   -1.2025 H         1 <1>         0.3535
     28 H28        -7.0854   -3.9716   -0.3305 H         1 <1>         0.1249
     29 H29        -5.1686   -5.4899   -0.0488 H         1 <1>         0.1252
     30 H30        -1.1793   -4.2638   -3.3797 H         1 <1>         0.3702
     31 H31         0.1145   -6.1050   -5.3488 H         1 <1>         0.1416
     32 H32         2.9200   -7.1309   -5.4867 H         1 <1>         0.3670
     33 H33         2.6478   -8.4312   -2.8079 H         1 <1>         0.1422
     34 H34         2.0682   -7.2392   -0.1288 H         1 <1>         0.3734
@<TRIPOS>BOND
     1    1    2 2
     2    2    3 1
     3    2   12 1
     4    3    4 1
     5    3   21 1
     6    3   22 1
     7    4    5 1
     8    4   23 1
     9    4   24 1
    10    5   11 ar
    11    5    6 ar
    12    6    7 ar
    13    6   25 1
    14    7    8 ar
    15    7   26 1
    16    8    9 1
    17    8   10 ar
    18    9   27 1
    19   10   11 ar
    20   10   28 1
    21   11   29 1
    22   12   19 ar
    23   12   13 ar
    24   13   14 1
    25   13   15 ar
    26   14   30 1
    27   15   16 ar
    28   15   31 1
    29   16   17 1
    30   16   18 ar
    31   17   32 1
    32   18   19 ar
    33   18   33 1
    34   19   20 1
    35   20   34 1
@<TRIPOS>Similarity
1.0329
@<TRIPOS>ShapeSim
0.7929
@<TRIPOS>PharmSim
0.2399
# END
# Name:		CC(=CCC1=C(C=CC2=C1OC(=O)C=C2)OC)C
# Created and modified by SHAFTS on Thu Mar 11 04:22:19 2021

# 

@<TRIPOS>MOLECULE
CC(=CCC1=C(C=CC2=C1OC(=O)C=C2)OC)C
   34    35     0
SMALL
USER_CHARGE


@<TRIPOS>ATOM
      1 C1          1.4567   -6.3712   -6.4590 C.3       1 <1>         0.0301
      2 O2          2.0616   -6.9863   -5.3198 O.3       1 <1>        -0.4039
      3 C3          1.3725   -6.9321   -4.1515 C.ar      1 <1>         0.0129
      4 C4          0.1313   -6.3004   -4.1102 C.ar      1 <1>        -0.0551
      5 C5         -0.5742   -6.2380   -2.9433 C.ar      1 <1>        -0.0830
      6 C6         -0.0476   -6.8121   -1.7809 C.ar      1 <1>        -0.0369
      7 C7         -0.7820   -6.7608   -0.5150 C.2       1 <1>        -0.0657
      8 C8         -0.2177   -7.3369    0.5782 C.2       1 <1>         0.0217
      9 C9          1.0421   -7.9608    0.4707 C.2       1 <1>         0.1946
     10 O10         1.5367   -8.4734    1.4587 O.2       1 <1>        -0.4260
     11 O11         1.7102   -8.0048   -0.6926 O.3       1 <1>        -0.2783
     12 C12         1.2059   -7.4514   -1.8164 C.ar      1 <1>         0.0540
     13 C13         1.9066   -7.5103   -3.0113 C.ar      1 <1>        -0.0012
     14 C14         3.2471   -8.1965   -3.0686 C.3       1 <1>        -0.0132
     15 C15         3.0521   -9.6528   -3.4035 C.2       1 <1>        -0.1309
     16 C16         3.6886  -10.1824   -4.4186 C.2       1 <1>        -0.1542
     17 C17         4.5081   -9.3086   -5.3329 C.3       1 <1>        -0.0565
     18 C18         3.6014  -11.6653   -4.6720 C.3       1 <1>        -0.0584
     19 H19         0.4975   -6.8473   -6.6624 H         1 <1>         0.0917
     20 H20         1.3010   -5.3110   -6.2597 H         1 <1>         0.0917
     21 H21         2.1101   -6.4863   -7.3239 H         1 <1>         0.1279
     22 H22        -0.2752   -5.8571   -5.0071 H         1 <1>         0.1203
     23 H23        -1.5357   -5.7468   -2.9172 H         1 <1>         0.1471
     24 H24        -1.7461   -6.2780   -0.4522 H         1 <1>         0.1620
     25 H25        -0.7326   -7.3166    1.5274 H         1 <1>         0.1447
     26 H26         3.8632   -7.7267   -3.8351 H         1 <1>         0.0871
     27 H27         3.7415   -8.1093   -2.1010 H         1 <1>         0.0871
     28 H28         2.3875  -10.2599   -2.8066 H         1 <1>         0.0926
     29 H29         5.5013   -9.1673   -4.9066 H         1 <1>         0.0431
     30 H30         4.5962   -9.7858   -6.3089 H         1 <1>         0.0431
     31 H31         4.0196   -8.3406   -5.4446 H         1 <1>         0.0574
     32 H32         2.7562  -11.8727   -5.3283 H         1 <1>         0.0446
     33 H33         4.5216  -12.0077   -5.1455 H         1 <1>         0.0446
     34 H34         3.4634  -12.1881   -3.7257 H         1 <1>         0.0446
@<TRIPOS>BOND
     1    1    2 1
     2    1   19 1
     3    1   20 1
     4    1   21 1
     5    2    3 1
     6    3   13 ar
     7    3    4 ar
     8    4    5 ar
     9    4   22 1
    10    5    6 ar
    11    5   23 1
    12    6   12 ar
    13    6    7 1
    14    7    8 2
    15    7   24 1
    16    8    9 1
    17    8   25 1
    18    9   10 2
    19    9   11 1
    20   11   12 1
    21   12   13 ar
    22   13   14 1
    23   14   15 1
    24   14   26 1
    25   14   27 1
    26   15   16 2
    27   15   28 1
    28   16   17 1
    29   16   18 1
    30   17   29 1
    31   17   30 1
    32   17   31 1
    33   18   32 1
    34   18   33 1
    35   18   34 1
@<TRIPOS>Similarity
1.0317
@<TRIPOS>ShapeSim
0.6049
@<TRIPOS>PharmSim
0.4268
# END
# Name:		CCCCOC1=C(C=NC2=NNC=C12)C(=O)C3=C(C=C(C=C3F)C)F
# Created and modified by SHAFTS on Thu Mar 11 04:22:19 2021

# 

@<TRIPOS>MOLECULE
CCCCOC1=C(C=NC2=NNC=C12)C(=O)C3=C(C=C(C=C3F)C)F
   42    44     0
SMALL
USER_CHARGE


@<TRIPOS>ATOM
      1 C1          0.8110   -7.6897   -2.7323 C.3       1 <1>        -0.0699
      2 C2         -0.2284   -6.5704   -2.8217 C.3       1 <1>        -0.0677
      3 C3         -0.6672   -6.1684   -1.4121 C.3       1 <1>        -0.0380
      4 C4         -1.7067   -5.0492   -1.5015 C.3       1 <1>         0.0222
      5 O5         -2.1165   -4.6736   -0.1850 O.3       1 <1>        -0.3916
      6 C6         -3.0381   -3.6899   -0.0866 C.ar      1 <1>         0.0546
      7 C7         -2.6556   -2.3452   -0.0000 C.ar      1 <1>         0.0939
      8 C8         -1.2310   -1.9838   -0.0154 C.2       1 <1>         0.1348
      9 O9         -0.3818   -2.8556   -0.0029 O.2       1 <1>        -0.4282
     10 C10        -0.8302   -0.5638   -0.0458 C.ar      1 <1>         0.1069
     11 C11        -0.7515    0.1191   -1.2647 C.ar      1 <1>         0.1047
     12 F12        -1.0424   -0.5194   -2.4192 F         1 <1>        -0.2455
     13 C13        -0.3758    1.4490   -1.2840 C.ar      1 <1>        -0.0318
     14 C14        -0.0780    2.1048   -0.1031 C.ar      1 <1>        -0.0884
     15 C15         0.3308    3.5550   -0.1341 C.3       1 <1>        -0.0292
     16 C16        -0.1536    1.4375    1.1062 C.ar      1 <1>        -0.0318
     17 C17        -0.5323    0.1090    1.1445 C.ar      1 <1>         0.1047
     18 F18        -0.6058   -0.5408    2.3267 F         1 <1>        -0.2455
     19 C19        -3.6354   -1.3402    0.1012 C.ar      1 <1>         0.0197
     20 N20        -4.9128   -1.6067    0.1186 N.ar      1 <1>        -0.3419
     21 C21        -5.3752   -2.8686    0.0404 C.ar      1 <1>         0.0580
     22 N22        -6.5800   -3.4045    0.0367 N.2       1 <1>        -0.3022
     23 N23        -6.4633   -4.7945   -0.0673 N.pl3     1 <1>        -0.2865
     24 C24        -5.1724   -5.1416   -0.1300 C.2       1 <1>        -0.0008
     25 C25        -4.4210   -3.9826   -0.0735 C.ar      1 <1>         0.0503
     26 H26         1.6755   -7.3384   -2.1690 H         1 <1>         0.0348
     27 H27         0.3743   -8.5516   -2.2279 H         1 <1>         0.0348
     28 H28         1.1236   -7.9762   -3.7365 H         1 <1>         0.0348
     29 H29         0.2082   -5.7085   -3.3260 H         1 <1>         0.0455
     30 H30        -1.0930   -6.9216   -3.3850 H         1 <1>         0.0384
     31 H31        -1.1039   -7.0304   -0.9077 H         1 <1>         0.0554
     32 H32         0.1972   -5.8172   -0.8488 H         1 <1>         0.0625
     33 H33        -1.2700   -4.1871   -2.0059 H         1 <1>         0.0994
     34 H34        -2.5711   -5.4004   -2.0648 H         1 <1>         0.0994
     35 H35        -0.3141    1.9776   -2.2237 H         1 <1>         0.1432
     36 H36        -0.5551    4.1841   -0.0486 H         1 <1>         0.0733
     37 H37         1.0042    3.7605    0.6980 H         1 <1>         0.0661
     38 H38         0.8392    3.7691   -1.0743 H         1 <1>         0.0661
     39 H39         0.0803    1.9574    2.0236 H         1 <1>         0.1432
     40 H40        -3.3184   -0.3098    0.1672 H         1 <1>         0.2466
     41 H41        -7.2083   -5.4154   -0.0902 H         1 <1>         0.4031
     42 H42        -4.7867   -6.1469   -0.2134 H         1 <1>         0.2425
@<TRIPOS>BOND
     1    1    2 1
     2    1   26 1
     3    1   27 1
     4    1   28 1
     5    2    3 1
     6    2   29 1
     7    2   30 1
     8    3    4 1
     9    3   31 1
    10    3   32 1
    11    4    5 1
    12    4   33 1
    13    4   34 1
    14    5    6 1
    15    6   25 ar
    16    6    7 ar
    17    7    8 1
    18    7   19 ar
    19    8    9 2
    20    8   10 1
    21   10   17 ar
    22   10   11 ar
    23   11   12 1
    24   11   13 ar
    25   13   14 ar
    26   13   35 1
    27   14   15 1
    28   14   16 ar
    29   15   36 1
    30   15   37 1
    31   15   38 1
    32   16   17 ar
    33   16   39 1
    34   17   18 1
    35   19   20 ar
    36   19   40 1
    37   20   21 ar
    38   21   25 ar
    39   21   22 2
    40   22   23 1
    41   23   24 1
    42   23   41 1
    43   24   25 2
    44   24   42 1
@<TRIPOS>Similarity
1.0315
@<TRIPOS>ShapeSim
0.6940
@<TRIPOS>PharmSim
0.3375
# END
# Name:		CCCCOC1=C2C(NN=C2)=NC=C1C(C3=C(F)C=C(C)C=C3F)=O
# Created and modified by SHAFTS on Thu Mar 11 04:22:19 2021

# 

@<TRIPOS>MOLECULE
CCCCOC1=C2C(NN=C2)=NC=C1C(C3=C(F)C=C(C)C=C3F)=O
   42    44     0
SMALL
USER_CHARGE


@<TRIPOS>ATOM
      1 C1          0.8110   -7.6897   -2.7323 C.3       1 <1>        -0.0699
      2 C2         -0.2284   -6.5704   -2.8217 C.3       1 <1>        -0.0677
      3 C3         -0.6672   -6.1684   -1.4121 C.3       1 <1>        -0.0380
      4 C4         -1.7067   -5.0492   -1.5015 C.3       1 <1>         0.0222
      5 O5         -2.1165   -4.6736   -0.1850 O.3       1 <1>        -0.3916
      6 C6         -3.0381   -3.6899   -0.0866 C.ar      1 <1>         0.0546
      7 C7         -2.6556   -2.3452   -0.0000 C.ar      1 <1>         0.0939
      8 C8         -1.2310   -1.9838   -0.0154 C.2       1 <1>         0.1348
      9 O9         -0.3818   -2.8556   -0.0029 O.2       1 <1>        -0.4282
     10 C10        -0.8302   -0.5638   -0.0458 C.ar      1 <1>         0.1069
     11 C11        -0.7515    0.1191   -1.2647 C.ar      1 <1>         0.1047
     12 F12        -1.0424   -0.5194   -2.4192 F         1 <1>        -0.2455
     13 C13        -0.3758    1.4490   -1.2840 C.ar      1 <1>        -0.0318
     14 C14        -0.0780    2.1048   -0.1031 C.ar      1 <1>        -0.0884
     15 C15         0.3308    3.5550   -0.1341 C.3       1 <1>        -0.0292
     16 C16        -0.1536    1.4375    1.1062 C.ar      1 <1>        -0.0318
     17 C17        -0.5323    0.1090    1.1445 C.ar      1 <1>         0.1047
     18 F18        -0.6058   -0.5408    2.3267 F         1 <1>        -0.2455
     19 C19        -3.6354   -1.3402    0.1012 C.ar      1 <1>         0.0197
     20 N20        -4.9128   -1.6067    0.1186 N.ar      1 <1>        -0.3419
     21 C21        -5.3752   -2.8686    0.0404 C.ar      1 <1>         0.0580
     22 N22        -6.5800   -3.4045    0.0367 N.2       1 <1>        -0.3022
     23 N23        -6.4633   -4.7945   -0.0673 N.pl3     1 <1>        -0.2865
     24 C24        -5.1724   -5.1416   -0.1300 C.2       1 <1>        -0.0008
     25 C25        -4.4210   -3.9826   -0.0735 C.ar      1 <1>         0.0503
     26 H26         1.6755   -7.3384   -2.1690 H         1 <1>         0.0348
     27 H27         0.3743   -8.5516   -2.2279 H         1 <1>         0.0348
     28 H28         1.1236   -7.9762   -3.7365 H         1 <1>         0.0348
     29 H29         0.2082   -5.7085   -3.3260 H         1 <1>         0.0455
     30 H30        -1.0930   -6.9216   -3.3850 H         1 <1>         0.0384
     31 H31        -1.1039   -7.0304   -0.9077 H         1 <1>         0.0554
     32 H32         0.1972   -5.8172   -0.8488 H         1 <1>         0.0625
     33 H33        -1.2700   -4.1871   -2.0059 H         1 <1>         0.0994
     34 H34        -2.5711   -5.4004   -2.0648 H         1 <1>         0.0994
     35 H35        -0.3141    1.9776   -2.2237 H         1 <1>         0.1432
     36 H36        -0.5551    4.1841   -0.0486 H         1 <1>         0.0733
     37 H37         1.0042    3.7605    0.6980 H         1 <1>         0.0661
     38 H38         0.8392    3.7691   -1.0743 H         1 <1>         0.0661
     39 H39         0.0803    1.9574    2.0236 H         1 <1>         0.1432
     40 H40        -3.3184   -0.3098    0.1672 H         1 <1>         0.2466
     41 H41        -7.2083   -5.4154   -0.0902 H         1 <1>         0.4031
     42 H42        -4.7867   -6.1469   -0.2134 H         1 <1>         0.2425
@<TRIPOS>BOND
     1    1    2 1
     2    1   26 1
     3    1   27 1
     4    1   28 1
     5    2    3 1
     6    2   29 1
     7    2   30 1
     8    3    4 1
     9    3   31 1
    10    3   32 1
    11    4    5 1
    12    4   33 1
    13    4   34 1
    14    5    6 1
    15    6   25 ar
    16    6    7 ar
    17    7    8 1
    18    7   19 ar
    19    8    9 2
    20    8   10 1
    21   10   17 ar
    22   10   11 ar
    23   11   12 1
    24   11   13 ar
    25   13   14 ar
    26   13   35 1
    27   14   15 1
    28   14   16 ar
    29   15   36 1
    30   15   37 1
    31   15   38 1
    32   16   17 ar
    33   16   39 1
    34   17   18 1
    35   19   20 ar
    36   19   40 1
    37   20   21 ar
    38   21   25 ar
    39   21   22 2
    40   22   23 1
    41   23   24 1
    42   23   41 1
    43   24   25 2
    44   24   42 1
@<TRIPOS>Similarity
1.0315
@<TRIPOS>ShapeSim
0.6940
@<TRIPOS>PharmSim
0.3375
# END
# Name:		CCCCOC1=C(C=NC2=NNC=C12)C(=O)C3=C(C=C(C=C3F)C)F
# Created and modified by SHAFTS on Thu Mar 11 04:22:19 2021

# 

@<TRIPOS>MOLECULE
CCCCOC1=C(C=NC2=NNC=C12)C(=O)C3=C(C=C(C=C3F)C)F
   42    44     0
SMALL
USER_CHARGE


@<TRIPOS>ATOM
      1 C1          0.8110   -7.6897   -2.7323 C.3       1 <1>        -0.0699
      2 C2         -0.2284   -6.5704   -2.8217 C.3       1 <1>        -0.0677
      3 C3         -0.6672   -6.1684   -1.4121 C.3       1 <1>        -0.0380
      4 C4         -1.7067   -5.0492   -1.5015 C.3       1 <1>         0.0222
      5 O5         -2.1165   -4.6736   -0.1850 O.3       1 <1>        -0.3916
      6 C6         -3.0381   -3.6899   -0.0866 C.ar      1 <1>         0.0546
      7 C7         -2.6556   -2.3452   -0.0000 C.ar      1 <1>         0.0939
      8 C8         -1.2310   -1.9838   -0.0154 C.2       1 <1>         0.1348
      9 O9         -0.3818   -2.8556   -0.0029 O.2       1 <1>        -0.4282
     10 C10        -0.8302   -0.5638   -0.0458 C.ar      1 <1>         0.1069
     11 C11        -0.7515    0.1191   -1.2647 C.ar      1 <1>         0.1047
     12 F12        -1.0424   -0.5194   -2.4192 F         1 <1>        -0.2455
     13 C13        -0.3758    1.4490   -1.2840 C.ar      1 <1>        -0.0318
     14 C14        -0.0780    2.1048   -0.1031 C.ar      1 <1>        -0.0884
     15 C15         0.3308    3.5550   -0.1341 C.3       1 <1>        -0.0292
     16 C16        -0.1536    1.4375    1.1062 C.ar      1 <1>        -0.0318
     17 C17        -0.5323    0.1090    1.1445 C.ar      1 <1>         0.1047
     18 F18        -0.6058   -0.5408    2.3267 F         1 <1>        -0.2455
     19 C19        -3.6354   -1.3402    0.1012 C.ar      1 <1>         0.0197
     20 N20        -4.9128   -1.6067    0.1186 N.ar      1 <1>        -0.3419
     21 C21        -5.3752   -2.8686    0.0404 C.ar      1 <1>         0.0580
     22 N22        -6.5800   -3.4045    0.0367 N.2       1 <1>        -0.3022
     23 N23        -6.4633   -4.7945   -0.0673 N.pl3     1 <1>        -0.2865
     24 C24        -5.1724   -5.1416   -0.1300 C.2       1 <1>        -0.0008
     25 C25        -4.4210   -3.9826   -0.0735 C.ar      1 <1>         0.0503
     26 H26         1.6755   -7.3384   -2.1690 H         1 <1>         0.0348
     27 H27         0.3743   -8.5516   -2.2279 H         1 <1>         0.0348
     28 H28         1.1236   -7.9762   -3.7365 H         1 <1>         0.0348
     29 H29         0.2082   -5.7085   -3.3260 H         1 <1>         0.0455
     30 H30        -1.0930   -6.9216   -3.3850 H         1 <1>         0.0384
     31 H31        -1.1039   -7.0304   -0.9077 H         1 <1>         0.0554
     32 H32         0.1972   -5.8172   -0.8488 H         1 <1>         0.0625
     33 H33        -1.2700   -4.1871   -2.0059 H         1 <1>         0.0994
     34 H34        -2.5711   -5.4004   -2.0648 H         1 <1>         0.0994
     35 H35        -0.3141    1.9776   -2.2237 H         1 <1>         0.1432
     36 H36        -0.5551    4.1841   -0.0486 H         1 <1>         0.0733
     37 H37         1.0042    3.7605    0.6980 H         1 <1>         0.0661
     38 H38         0.8392    3.7691   -1.0743 H         1 <1>         0.0661
     39 H39         0.0803    1.9574    2.0236 H         1 <1>         0.1432
     40 H40        -3.3184   -0.3098    0.1672 H         1 <1>         0.2466
     41 H41        -7.2083   -5.4154   -0.0902 H         1 <1>         0.4031
     42 H42        -4.7867   -6.1469   -0.2134 H         1 <1>         0.2425
@<TRIPOS>BOND
     1    1    2 1
     2    1   26 1
     3    1   27 1
     4    1   28 1
     5    2    3 1
     6    2   29 1
     7    2   30 1
     8    3    4 1
     9    3   31 1
    10    3   32 1
    11    4    5 1
    12    4   33 1
    13    4   34 1
    14    5    6 1
    15    6   25 ar
    16    6    7 ar
    17    7    8 1
    18    7   19 ar
    19    8    9 2
    20    8   10 1
    21   10   17 ar
    22   10   11 ar
    23   11   12 1
    24   11   13 ar
    25   13   14 ar
    26   13   35 1
    27   14   15 1
    28   14   16 ar
    29   15   36 1
    30   15   37 1
    31   15   38 1
    32   16   17 ar
    33   16   39 1
    34   17   18 1
    35   19   20 ar
    36   19   40 1
    37   20   21 ar
    38   21   25 ar
    39   21   22 2
    40   22   23 1
    41   23   24 1
    42   23   41 1
    43   24   25 2
    44   24   42 1
@<TRIPOS>Similarity
1.0315
@<TRIPOS>ShapeSim
0.6940
@<TRIPOS>PharmSim
0.3375
# END
# Name:		C1[C@H](OC2=CC(=CC(=C2C1=O)O)O)C3=CC(=C(C=C3)O)O
# Created and modified by SHAFTS on Thu Mar 11 04:22:19 2021

# 

@<TRIPOS>MOLECULE
C1[C@H](OC2=CC(=CC(=C2C1=O)O)O)C3=CC(=C(C=C3)O)O
   33    35     0
SMALL
USER_CHARGE


@<TRIPOS>ATOM
      1 O1          0.5363   -6.7898    0.9522 O.2       1 <1>        -0.4549
      2 C2         -0.1913   -6.3706    0.0756 C.2       1 <1>         0.0866
      3 C3         -1.4812   -5.6355    0.3927 C.3       1 <1>         0.0708
      4 C4         -1.5992   -4.4742   -0.6051 C.3       1 <1>         0.0642
      5 H5         -0.7536   -3.7982   -0.4782 H         1 <1>         0.1405
      6 C6         -2.8832   -3.7257   -0.3561 C.ar      1 <1>        -0.0588
      7 C7         -4.0774   -4.2251   -0.8404 C.ar      1 <1>        -0.0786
      8 C8         -5.2584   -3.5418   -0.6151 C.ar      1 <1>        -0.0561
      9 C9         -5.2461   -2.3541    0.0980 C.ar      1 <1>        -0.0040
     10 O10        -6.4066   -1.6811    0.3208 O.3       1 <1>        -0.4307
     11 C11        -4.0434   -1.8514    0.5861 C.ar      1 <1>        -0.0022
     12 O12        -4.0263   -0.6861    1.2869 O.3       1 <1>        -0.4313
     13 C13        -2.8647   -2.5436    0.3612 C.ar      1 <1>        -0.0491
     14 O14        -1.5994   -4.9925   -1.9352 O.3       1 <1>        -0.3855
     15 C15        -0.6007   -5.8274   -2.3069 C.ar      1 <1>         0.0330
     16 C16        -0.2905   -5.9799   -3.6464 C.ar      1 <1>        -0.0094
     17 C17         0.7283   -6.8410   -4.0344 C.ar      1 <1>        -0.0128
     18 O18         1.0236   -6.9816   -5.3512 O.3       1 <1>        -0.4242
     19 C19         1.4482   -7.5594   -3.0881 C.ar      1 <1>        -0.0189
     20 C20         1.1565   -7.4197   -1.7427 C.ar      1 <1>        -0.0008
     21 O21         1.8561   -8.1201   -0.8158 O.3       1 <1>        -0.4187
     22 C22         0.1339   -6.5431   -1.3444 C.ar      1 <1>         0.0588
     23 H23        -2.3301   -6.3098    0.2797 H         1 <1>         0.1104
     24 H24        -1.4469   -5.2480    1.4109 H         1 <1>         0.1104
     25 H25        -4.0884   -5.1509   -1.3964 H         1 <1>         0.1392
     26 H26        -6.1901   -3.9338   -0.9951 H         1 <1>         0.1363
     27 H27        -6.8588   -1.9363    1.1366 H         1 <1>         0.3567
     28 H28        -4.1381   -0.7992    2.2408 H         1 <1>         0.3565
     29 H29        -1.9303   -2.1557    0.7388 H         1 <1>         0.1411
     30 H30        -0.8424   -5.4280   -4.3929 H         1 <1>         0.1440
     31 H31         1.6914   -6.3605   -5.6729 H         1 <1>         0.3676
     32 H32         2.2363   -8.2274   -3.4027 H         1 <1>         0.1388
     33 H33         2.6430   -7.6630   -0.4889 H         1 <1>         0.3710
@<TRIPOS>BOND
     1    1    2 2
     2    2   22 1
     3    2    3 1
     4    3    4 1
     5    3   23 1
     6    3   24 1
     7    4    5 1
     8    4    6 1
     9    4   14 1
    10    6   13 ar
    11    6    7 ar
    12    7    8 ar
    13    7   25 1
    14    8    9 ar
    15    8   26 1
    16    9   10 1
    17    9   11 ar
    18   10   27 1
    19   11   12 1
    20   11   13 ar
    21   12   28 1
    22   13   29 1
    23   14   15 1
    24   15   22 ar
    25   15   16 ar
    26   16   17 ar
    27   16   30 1
    28   17   18 1
    29   17   19 ar
    30   18   31 1
    31   19   20 ar
    32   19   32 1
    33   20   21 1
    34   20   22 ar
    35   21   33 1
@<TRIPOS>Similarity
1.0302
@<TRIPOS>ShapeSim
0.7918
@<TRIPOS>PharmSim
0.2384
# END
# Name:		C1=CC=C(C=C1)N2C3=C(C=N2)C4=C(C5=CC=CN53)C(=O)NC4=O
# Created and modified by SHAFTS on Thu Mar 11 04:22:19 2021

# 

@<TRIPOS>MOLECULE
C1=CC=C(C=C1)N2C3=C(C=N2)C4=C(C5=CC=CN53)C(=O)NC4=O
   33    37     0
SMALL
USER_CHARGE


@<TRIPOS>ATOM
      1 O1          1.2342   -7.4861   -5.0601 O.2       1 <1>        -0.4141
      2 C2          1.1194   -7.4174   -3.8530 C.2       1 <1>         0.1757
      3 N3          1.8659   -8.0841   -2.9524 N.am      1 <1>        -0.2116
      4 C4          1.4802   -7.7820   -1.6985 C.2       1 <1>         0.1699
      5 O5          1.9681   -8.2278   -0.6792 O.2       1 <1>        -0.4207
      6 C6          0.3681   -6.8200   -1.7703 C.2       1 <1>         0.0955
      7 C7          0.1434   -6.5851   -3.1263 C.2       1 <1>         0.1019
      8 C8         -0.9119   -5.6624   -3.5225 C.2       1 <1>         0.0036
      9 C9         -1.3587   -5.2395   -4.7620 C.2       1 <1>        -0.0665
     10 C10        -2.4057   -4.3425   -4.5376 C.2       1 <1>        -0.0816
     11 C11        -2.5814   -4.2312   -3.1987 C.2       1 <1>        -0.0435
     12 N12        -1.6776   -5.0303   -2.5633 N.pl3     1 <1>        -0.3025
     13 C13        -1.4615   -5.2564   -1.2199 C.2       1 <1>         0.0717
     14 C14        -0.4628   -6.1266   -0.7868 C.2       1 <1>         0.0542
     15 C15        -0.5004   -6.1369    0.6253 C.2       1 <1>         0.0351
     16 N16        -1.4501   -5.3335    1.0168 N.2       1 <1>        -0.2966
     17 N17        -2.0679   -4.7663   -0.1034 N.pl3     1 <1>        -0.2502
     18 C18        -3.1306   -3.8533   -0.0803 C.ar      1 <1>        -0.0005
     19 C19        -3.0847   -2.7534    0.7659 C.ar      1 <1>        -0.0486
     20 C20        -4.1336   -1.8551    0.7861 C.ar      1 <1>        -0.0831
     21 C21        -5.2287   -2.0500   -0.0355 C.ar      1 <1>        -0.0930
     22 C22        -5.2775   -3.1446   -0.8792 C.ar      1 <1>        -0.0897
     23 C23        -4.2293   -4.0434   -0.9079 C.ar      1 <1>        -0.0585
     24 H24         2.5827   -8.6980   -3.1764 H         1 <1>         0.3671
     25 H25        -0.9707   -5.5455   -5.7224 H         1 <1>         0.1456
     26 H26        -2.9751   -3.8281   -5.2976 H         1 <1>         0.1410
     27 H27        -3.3187   -3.6093   -2.7128 H         1 <1>         0.1857
     28 H28         0.1470   -6.7120    1.2708 H         1 <1>         0.2553
     29 H29        -2.2299   -2.6009    1.4081 H         1 <1>         0.1471
     30 H30        -4.0986   -0.9996    1.4444 H         1 <1>         0.1350
     31 H31        -6.0476   -1.3461   -0.0180 H         1 <1>         0.1337
     32 H32        -6.1345   -3.2946   -1.5191 H         1 <1>         0.1332
     33 H33        -4.2681   -4.8982   -1.5669 H         1 <1>         0.1293
@<TRIPOS>BOND
     1    1    2 2
     2    2    7 1
     3    2    3 am
     4    3    4 am
     5    3   24 1
     6    4    5 2
     7    4    6 1
     8    6   14 1
     9    6    7 2
    10    7    8 1
    11    8   12 1
    12    8    9 2
    13    9   10 1
    14    9   25 1
    15   10   11 2
    16   10   26 1
    17   11   12 1
    18   11   27 1
    19   12   13 1
    20   13   17 1
    21   13   14 2
    22   14   15 1
    23   15   16 2
    24   15   28 1
    25   16   17 1
    26   17   18 1
    27   18   23 ar
    28   18   19 ar
    29   19   20 ar
    30   19   29 1
    31   20   21 ar
    32   20   30 1
    33   21   22 ar
    34   21   31 1
    35   22   23 ar
    36   22   32 1
    37   23   33 1
@<TRIPOS>Similarity
1.0300
@<TRIPOS>ShapeSim
0.7104
@<TRIPOS>PharmSim
0.3196
# END
# Name:		O=C1C(O)=C(OC2=CC(O)=CC(O)=C21)C3=CC=C(O)C=C3
# Created and modified by SHAFTS on Thu Mar 11 04:22:19 2021

# 

@<TRIPOS>MOLECULE
O=C1C(O)=C(OC2=CC(O)=CC(O)=C21)C3=CC=C(O)C=C3
   30    32     0
SMALL
USER_CHARGE


@<TRIPOS>ATOM
      1 O1         -0.6054   -2.3041    0.1411 O.2       1 <1>        -0.5203
      2 C2         -1.3916   -3.1037   -0.3433 C.2       1 <1>         0.0466
      3 C3         -2.4911   -2.6674   -1.0968 C.2       1 <1>        -0.0381
      4 C4         -3.3743   -3.5782   -1.6343 C.2       1 <1>        -0.0647
      5 O5         -4.4202   -3.1205   -2.3640 O.3       1 <1>        -0.5619
      6 C6         -3.2303   -4.9594   -1.4547 C.2       1 <1>        -0.0101
      7 C7         -2.1951   -5.4736   -0.7341 C.2       1 <1>         0.0372
      8 O8         -2.0848   -6.8099   -0.5476 O.3       1 <1>        -0.3757
      9 C9         -0.7684   -7.3506   -0.3879 C.3       1 <1>         0.1402
     10 C10        -0.0171   -7.2520   -1.6906 C.ar      1 <1>        -0.0576
     11 C11         1.1770   -7.9303   -1.8516 C.ar      1 <1>        -0.0931
     12 C12         1.8676   -7.8415   -3.0447 C.ar      1 <1>        -0.0719
     13 C13         1.3619   -7.0714   -4.0820 C.ar      1 <1>        -0.0427
     14 O14         2.0391   -6.9829   -5.2568 O.3       1 <1>        -0.4411
     15 C15         0.1633   -6.3923   -3.9180 C.ar      1 <1>        -0.0660
     16 C16        -0.5260   -6.4882   -2.7246 C.ar      1 <1>        -0.0858
     17 C17        -0.0504   -6.5467    0.6785 C.2       1 <1>         0.1611
     18 O18         0.5586   -7.0812    1.5746 O.2       1 <1>        -0.4306
     19 C19        -0.1344   -5.0593    0.5636 C.2       1 <1>         0.0992
     20 O20         0.7854   -4.2514    1.1251 O.3       1 <1>        -0.3856
     21 C21        -1.2076   -4.5548   -0.1574 C.2       1 <1>         0.0703
     22 H22        -2.6466   -1.6107   -1.2564 H         1 <1>         0.0568
     23 H23        -3.9539   -5.6294   -1.8952 H         1 <1>         0.1413
     24 H24        -0.8346   -8.3941   -0.0800 H         1 <1>         0.2030
     25 H25         1.5702   -8.5296   -1.0438 H         1 <1>         0.1260
     26 H26         2.8006   -8.3709   -3.1698 H         1 <1>         0.1231
     27 H27         1.7951   -7.6593   -5.9034 H         1 <1>         0.3538
     28 H28        -0.2323   -5.7919   -4.7239 H         1 <1>         0.1337
     29 H29        -1.4592   -5.9598   -2.5966 H         1 <1>         0.1442
     30 H30         1.5068   -4.6768    1.6085 H         1 <1>         0.3887
@<TRIPOS>BOND
     1    1    2 2
     2    2   21 1
     3    2    3 1
     4    3    4 2
     5    3   22 1
     6    4    5 1
     7    4    6 1
     8    6    7 2
     9    6   23 1
    10    7   21 1
    11    7    8 1
    12    8    9 1
    13    9   10 1
    14    9   17 1
    15    9   24 1
    16   10   16 ar
    17   10   11 ar
    18   11   12 ar
    19   11   25 1
    20   12   13 ar
    21   12   26 1
    22   13   14 1
    23   13   15 ar
    24   14   27 1
    25   15   16 ar
    26   15   28 1
    27   16   29 1
    28   17   18 2
    29   17   19 1
    30   19   20 1
    31   19   21 2
    32   20   30 1
@<TRIPOS>Similarity
1.0291
@<TRIPOS>ShapeSim
0.6775
@<TRIPOS>PharmSim
0.3516
# END
# Name:		C1=CC(=CC=C1C2=C(C(=O)C3=C(C=C(C=C3O2)O)O)O)O
# Created and modified by SHAFTS on Thu Mar 11 04:22:19 2021

# 

@<TRIPOS>MOLECULE
C1=CC(=CC=C1C2=C(C(=O)C3=C(C=C(C=C3O2)O)O)O)O
   30    32     0
SMALL
USER_CHARGE


@<TRIPOS>ATOM
      1 O1         -0.6054   -2.3041    0.1411 O.2       1 <1>        -0.5203
      2 C2         -1.3916   -3.1037   -0.3433 C.2       1 <1>         0.0466
      3 C3         -2.4911   -2.6674   -1.0968 C.2       1 <1>        -0.0381
      4 C4         -3.3743   -3.5782   -1.6343 C.2       1 <1>        -0.0647
      5 O5         -4.4202   -3.1205   -2.3640 O.3       1 <1>        -0.5619
      6 C6         -3.2303   -4.9594   -1.4547 C.2       1 <1>        -0.0101
      7 C7         -2.1951   -5.4736   -0.7341 C.2       1 <1>         0.0372
      8 O8         -2.0848   -6.8099   -0.5476 O.3       1 <1>        -0.3757
      9 C9         -0.7684   -7.3506   -0.3879 C.3       1 <1>         0.1402
     10 C10        -0.0171   -7.2520   -1.6906 C.ar      1 <1>        -0.0576
     11 C11         1.1770   -7.9303   -1.8516 C.ar      1 <1>        -0.0931
     12 C12         1.8676   -7.8415   -3.0447 C.ar      1 <1>        -0.0719
     13 C13         1.3619   -7.0714   -4.0820 C.ar      1 <1>        -0.0427
     14 O14         2.0391   -6.9829   -5.2568 O.3       1 <1>        -0.4411
     15 C15         0.1633   -6.3923   -3.9180 C.ar      1 <1>        -0.0660
     16 C16        -0.5260   -6.4882   -2.7246 C.ar      1 <1>        -0.0858
     17 C17        -0.0504   -6.5467    0.6785 C.2       1 <1>         0.1611
     18 O18         0.5586   -7.0812    1.5746 O.2       1 <1>        -0.4306
     19 C19        -0.1344   -5.0593    0.5636 C.2       1 <1>         0.0992
     20 O20         0.7854   -4.2514    1.1251 O.3       1 <1>        -0.3856
     21 C21        -1.2076   -4.5548   -0.1574 C.2       1 <1>         0.0703
     22 H22        -2.6466   -1.6107   -1.2564 H         1 <1>         0.0568
     23 H23        -3.9539   -5.6294   -1.8952 H         1 <1>         0.1413
     24 H24        -0.8346   -8.3941   -0.0800 H         1 <1>         0.2030
     25 H25         1.5702   -8.5296   -1.0438 H         1 <1>         0.1260
     26 H26         2.8006   -8.3709   -3.1698 H         1 <1>         0.1231
     27 H27         1.7951   -7.6593   -5.9034 H         1 <1>         0.3538
     28 H28        -0.2323   -5.7919   -4.7239 H         1 <1>         0.1337
     29 H29        -1.4592   -5.9598   -2.5966 H         1 <1>         0.1442
     30 H30         1.5068   -4.6768    1.6085 H         1 <1>         0.3887
@<TRIPOS>BOND
     1    1    2 2
     2    2   21 1
     3    2    3 1
     4    3    4 2
     5    3   22 1
     6    4    5 1
     7    4    6 1
     8    6    7 2
     9    6   23 1
    10    7   21 1
    11    7    8 1
    12    8    9 1
    13    9   10 1
    14    9   17 1
    15    9   24 1
    16   10   16 ar
    17   10   11 ar
    18   11   12 ar
    19   11   25 1
    20   12   13 ar
    21   12   26 1
    22   13   14 1
    23   13   15 ar
    24   14   27 1
    25   15   16 ar
    26   15   28 1
    27   16   29 1
    28   17   18 2
    29   17   19 1
    30   19   20 1
    31   19   21 2
    32   20   30 1
@<TRIPOS>Similarity
1.0291
@<TRIPOS>ShapeSim
0.6775
@<TRIPOS>PharmSim
0.3516
# END
# Name:		OC1=CC(O)=C(C(C(O)=C(C2=CC=C(O)C=C2)O3)=O)C3=C1
# Created and modified by SHAFTS on Thu Mar 11 04:22:19 2021

# 

@<TRIPOS>MOLECULE
OC1=CC(O)=C(C(C(O)=C(C2=CC=C(O)C=C2)O3)=O)C3=C1
   30    32     0
SMALL
USER_CHARGE


@<TRIPOS>ATOM
      1 O1         -0.6054   -2.3041    0.1411 O.2       1 <1>        -0.5203
      2 C2         -1.3916   -3.1037   -0.3433 C.2       1 <1>         0.0466
      3 C3         -2.4911   -2.6674   -1.0968 C.2       1 <1>        -0.0381
      4 C4         -3.3743   -3.5782   -1.6343 C.2       1 <1>        -0.0647
      5 O5         -4.4202   -3.1205   -2.3640 O.3       1 <1>        -0.5619
      6 C6         -3.2303   -4.9594   -1.4547 C.2       1 <1>        -0.0101
      7 C7         -2.1951   -5.4736   -0.7341 C.2       1 <1>         0.0372
      8 O8         -2.0848   -6.8099   -0.5476 O.3       1 <1>        -0.3757
      9 C9         -0.7684   -7.3506   -0.3879 C.3       1 <1>         0.1402
     10 C10        -0.0171   -7.2520   -1.6906 C.ar      1 <1>        -0.0576
     11 C11         1.1770   -7.9303   -1.8516 C.ar      1 <1>        -0.0931
     12 C12         1.8676   -7.8415   -3.0447 C.ar      1 <1>        -0.0719
     13 C13         1.3619   -7.0714   -4.0820 C.ar      1 <1>        -0.0427
     14 O14         2.0391   -6.9829   -5.2568 O.3       1 <1>        -0.4411
     15 C15         0.1633   -6.3923   -3.9180 C.ar      1 <1>        -0.0660
     16 C16        -0.5260   -6.4882   -2.7246 C.ar      1 <1>        -0.0858
     17 C17        -0.0504   -6.5467    0.6785 C.2       1 <1>         0.1611
     18 O18         0.5586   -7.0812    1.5746 O.2       1 <1>        -0.4306
     19 C19        -0.1344   -5.0593    0.5636 C.2       1 <1>         0.0992
     20 O20         0.7854   -4.2514    1.1251 O.3       1 <1>        -0.3856
     21 C21        -1.2076   -4.5548   -0.1574 C.2       1 <1>         0.0703
     22 H22        -2.6466   -1.6107   -1.2564 H         1 <1>         0.0568
     23 H23        -3.9539   -5.6294   -1.8952 H         1 <1>         0.1413
     24 H24        -0.8346   -8.3941   -0.0800 H         1 <1>         0.2030
     25 H25         1.5702   -8.5296   -1.0438 H         1 <1>         0.1260
     26 H26         2.8006   -8.3709   -3.1698 H         1 <1>         0.1231
     27 H27         1.7951   -7.6593   -5.9034 H         1 <1>         0.3538
     28 H28        -0.2323   -5.7919   -4.7239 H         1 <1>         0.1337
     29 H29        -1.4592   -5.9598   -2.5966 H         1 <1>         0.1442
     30 H30         1.5068   -4.6768    1.6085 H         1 <1>         0.3887
@<TRIPOS>BOND
     1    1    2 2
     2    2   21 1
     3    2    3 1
     4    3    4 2
     5    3   22 1
     6    4    5 1
     7    4    6 1
     8    6    7 2
     9    6   23 1
    10    7   21 1
    11    7    8 1
    12    8    9 1
    13    9   10 1
    14    9   17 1
    15    9   24 1
    16   10   16 ar
    17   10   11 ar
    18   11   12 ar
    19   11   25 1
    20   12   13 ar
    21   12   26 1
    22   13   14 1
    23   13   15 ar
    24   14   27 1
    25   15   16 ar
    26   15   28 1
    27   16   29 1
    28   17   18 2
    29   17   19 1
    30   19   20 1
    31   19   21 2
    32   20   30 1
@<TRIPOS>Similarity
1.0291
@<TRIPOS>ShapeSim
0.6775
@<TRIPOS>PharmSim
0.3516
# END
# Name:		C1=CC(=CC=C1C2=C(C(=O)C3=C(C=C(C=C3O2)O)O)O)O
# Created and modified by SHAFTS on Thu Mar 11 04:22:19 2021

# 

@<TRIPOS>MOLECULE
C1=CC(=CC=C1C2=C(C(=O)C3=C(C=C(C=C3O2)O)O)O)O
   30    32     0
SMALL
USER_CHARGE


@<TRIPOS>ATOM
      1 O1         -0.6054   -2.3041    0.1411 O.2       1 <1>        -0.5203
      2 C2         -1.3916   -3.1037   -0.3433 C.2       1 <1>         0.0466
      3 C3         -2.4911   -2.6674   -1.0968 C.2       1 <1>        -0.0381
      4 C4         -3.3743   -3.5782   -1.6343 C.2       1 <1>        -0.0647
      5 O5         -4.4202   -3.1205   -2.3640 O.3       1 <1>        -0.5619
      6 C6         -3.2303   -4.9594   -1.4547 C.2       1 <1>        -0.0101
      7 C7         -2.1951   -5.4736   -0.7341 C.2       1 <1>         0.0372
      8 O8         -2.0848   -6.8099   -0.5476 O.3       1 <1>        -0.3757
      9 C9         -0.7684   -7.3506   -0.3879 C.3       1 <1>         0.1402
     10 C10        -0.0171   -7.2520   -1.6906 C.ar      1 <1>        -0.0576
     11 C11         1.1770   -7.9303   -1.8516 C.ar      1 <1>        -0.0931
     12 C12         1.8676   -7.8415   -3.0447 C.ar      1 <1>        -0.0719
     13 C13         1.3619   -7.0714   -4.0820 C.ar      1 <1>        -0.0427
     14 O14         2.0391   -6.9829   -5.2568 O.3       1 <1>        -0.4411
     15 C15         0.1633   -6.3923   -3.9180 C.ar      1 <1>        -0.0660
     16 C16        -0.5260   -6.4882   -2.7246 C.ar      1 <1>        -0.0858
     17 C17        -0.0504   -6.5467    0.6785 C.2       1 <1>         0.1611
     18 O18         0.5586   -7.0812    1.5746 O.2       1 <1>        -0.4306
     19 C19        -0.1344   -5.0593    0.5636 C.2       1 <1>         0.0992
     20 O20         0.7854   -4.2514    1.1251 O.3       1 <1>        -0.3856
     21 C21        -1.2076   -4.5548   -0.1574 C.2       1 <1>         0.0703
     22 H22        -2.6466   -1.6107   -1.2564 H         1 <1>         0.0568
     23 H23        -3.9539   -5.6294   -1.8952 H         1 <1>         0.1413
     24 H24        -0.8346   -8.3941   -0.0800 H         1 <1>         0.2030
     25 H25         1.5702   -8.5296   -1.0438 H         1 <1>         0.1260
     26 H26         2.8006   -8.3709   -3.1698 H         1 <1>         0.1231
     27 H27         1.7951   -7.6593   -5.9034 H         1 <1>         0.3538
     28 H28        -0.2323   -5.7919   -4.7239 H         1 <1>         0.1337
     29 H29        -1.4592   -5.9598   -2.5966 H         1 <1>         0.1442
     30 H30         1.5068   -4.6768    1.6085 H         1 <1>         0.3887
@<TRIPOS>BOND
     1    1    2 2
     2    2   21 1
     3    2    3 1
     4    3    4 2
     5    3   22 1
     6    4    5 1
     7    4    6 1
     8    6    7 2
     9    6   23 1
    10    7   21 1
    11    7    8 1
    12    8    9 1
    13    9   10 1
    14    9   17 1
    15    9   24 1
    16   10   16 ar
    17   10   11 ar
    18   11   12 ar
    19   11   25 1
    20   12   13 ar
    21   12   26 1
    22   13   14 1
    23   13   15 ar
    24   14   27 1
    25   15   16 ar
    26   15   28 1
    27   16   29 1
    28   17   18 2
    29   17   19 1
    30   19   20 1
    31   19   21 2
    32   20   30 1
@<TRIPOS>Similarity
1.0291
@<TRIPOS>ShapeSim
0.6775
@<TRIPOS>PharmSim
0.3516
# END
# Name:		OC1=C(C(C=C(C2=CC=C(O)C(O)=C2)O3)=O)C3=C(OC)C(O)=C1
# Created and modified by SHAFTS on Thu Mar 11 04:22:19 2021

# 

@<TRIPOS>MOLECULE
OC1=C(C(C=C(C2=CC=C(O)C(O)=C2)O3)=O)C3=C(OC)C(O)=C1
   34    36     0
SMALL
USER_CHARGE


@<TRIPOS>ATOM
      1 C1         -3.7465   -4.8959   -1.8703 C.3       1 <1>         0.0205
      2 O2         -4.5861   -4.7520   -0.7230 O.3       1 <1>        -0.4079
      3 C3         -4.1327   -5.2852    0.4464 C.2       1 <1>         0.0940
      4 C4         -2.9080   -5.9251    0.4873 C.2       1 <1>         0.0814
      5 O5         -2.1495   -6.0286   -0.6259 O.3       1 <1>        -0.3443
      6 C6         -0.9573   -6.6467   -0.6031 C.2       1 <1>         0.0416
      7 C7         -0.1670   -6.7338   -1.8435 C.ar      1 <1>        -0.0173
      8 C8          1.0736   -7.3785   -1.8402 C.ar      1 <1>        -0.0655
      9 C9          1.8108   -7.4592   -3.0017 C.ar      1 <1>        -0.0523
     10 C10         1.3250   -6.9017   -4.1764 C.ar      1 <1>        -0.0002
     11 O11         2.0558   -6.9842   -5.3182 O.3       1 <1>        -0.4291
     12 C12         0.0880   -6.2574   -4.1873 C.ar      1 <1>         0.0055
     13 O13        -0.3849   -5.7132   -5.3405 O.3       1 <1>        -0.4263
     14 C14        -0.6588   -6.1767   -3.0288 C.ar      1 <1>        -0.0319
     15 C15        -0.4563   -7.2014    0.5563 C.2       1 <1>        -0.0156
     16 C16        -1.1960   -7.1254    1.7387 C.2       1 <1>         0.0136
     17 O17        -0.7239   -7.6616    2.8858 O.3       1 <1>        -0.3874
     18 C18        -2.4494   -6.4740    1.7068 C.2       1 <1>         0.0385
     19 C19        -3.2381   -6.3684    2.8699 C.2       1 <1>        -0.0430
     20 O20        -2.7969   -6.8947    4.0409 O.3       1 <1>        -0.5384
     21 C21        -4.4470   -5.7349    2.8168 C.2       1 <1>        -0.0274
     22 C22        -4.9041   -5.1812    1.6117 C.2       1 <1>         0.0409
     23 O23        -6.0881   -4.5635    1.5714 O.2       1 <1>        -0.5824
     24 H24        -2.7872   -4.4142   -1.6813 H         1 <1>         0.0847
     25 H25        -3.5875   -5.9550   -2.0736 H         1 <1>         0.0847
     26 H26        -4.2245   -4.4285   -2.7313 H         1 <1>         0.1136
     27 H27         1.4541   -7.8129   -0.9276 H         1 <1>         0.1416
     28 H28         2.7692   -7.9571   -2.9978 H         1 <1>         0.1370
     29 H29         1.8710   -7.7721   -5.8475 H         1 <1>         0.3570
     30 H30        -0.9180   -6.3201   -5.8720 H         1 <1>         0.3594
     31 H31        -1.6168   -5.6780   -3.0360 H         1 <1>         0.1537
     32 H32         0.5051   -7.6935    0.5497 H         1 <1>         0.1209
     33 H33         0.1420   -8.0825    2.7960 H         1 <1>         0.3789
     34 H34        -5.0512   -5.6542    3.7085 H         1 <1>         0.0714
@<TRIPOS>BOND
     1    1    2 1
     2    1   24 1
     3    1   25 1
     4    1   26 1
     5    2    3 1
     6    3   22 1
     7    3    4 2
     8    4   18 1
     9    4    5 1
    10    5    6 1
    11    6    7 1
    12    6   15 2
    13    7   14 ar
    14    7    8 ar
    15    8    9 ar
    16    8   27 1
    17    9   10 ar
    18    9   28 1
    19   10   11 1
    20   10   12 ar
    21   11   29 1
    22   12   13 1
    23   12   14 ar
    24   13   30 1
    25   14   31 1
    26   15   16 1
    27   15   32 1
    28   16   17 1
    29   16   18 2
    30   17   33 1
    31   18   19 1
    32   19   20 1
    33   19   21 2
    34   21   22 1
    35   21   34 1
    36   22   23 2
@<TRIPOS>Similarity
1.0263
@<TRIPOS>ShapeSim
0.5664
@<TRIPOS>PharmSim
0.4599
# END
# Name:		C1=CC=C(C=C1)C2=CC(=O)C3=C(O2)C=C(C(=C3O)O)O
# Created and modified by SHAFTS on Thu Mar 11 04:22:19 2021

# 

@<TRIPOS>MOLECULE
C1=CC=C(C=C1)C2=CC(=O)C3=C(O2)C=C(C(=C3O)O)O
   29    31     0
SMALL
USER_CHARGE


@<TRIPOS>ATOM
      1 O1         -1.9143   -6.2245   -0.4013 O.2       1 <1>        -0.4952
      2 C2         -0.8217   -6.7607   -0.4893 C.2       1 <1>         0.0612
      3 C3         -0.2082   -7.3695    0.6325 C.2       1 <1>         0.0131
      4 C4          1.0094   -7.9570    0.4937 C.2       1 <1>         0.0472
      5 C5          1.6324   -8.5869    1.6754 C.ar      1 <1>        -0.0277
      6 C6          0.9711   -8.5781    2.9054 C.ar      1 <1>        -0.0788
      7 C7          1.5586   -9.1688    4.0048 C.ar      1 <1>        -0.0995
      8 C8          2.8004   -9.7686    3.8911 C.ar      1 <1>        -0.1053
      9 C9          3.4612   -9.7809    2.6754 C.ar      1 <1>        -0.0976
     10 C10         2.8828   -9.1991    1.5665 C.ar      1 <1>        -0.0751
     11 O11         1.6674   -7.9874   -0.6755 O.3       1 <1>        -0.3424
     12 C12         1.1650   -7.4346   -1.8006 C.ar      1 <1>         0.0294
     13 C13         1.8720   -7.4849   -2.9917 C.ar      1 <1>        -0.0227
     14 C14         1.3429   -6.9134   -4.1382 C.ar      1 <1>        -0.0248
     15 O15         2.0424   -6.9677   -5.3014 O.3       1 <1>        -0.5560
     16 C16         0.1000   -6.2842   -4.1088 C.ar      1 <1>         0.0345
     17 O17        -0.4073   -5.7272   -5.2429 O.3       1 <1>        -0.4376
     18 C18        -0.6209   -6.2251   -2.9267 C.ar      1 <1>         0.0110
     19 O19        -1.8330   -5.6130   -2.8940 O.3       1 <1>        -0.4212
     20 C20        -0.0922   -6.8056   -1.7678 C.ar      1 <1>         0.0419
     21 H21        -0.7044   -7.3666    1.5917 H         1 <1>         0.1277
     22 H22         0.0021   -8.1097    2.9957 H         1 <1>         0.1307
     23 H23         1.0484   -9.1627    4.9566 H         1 <1>         0.1211
     24 H24         3.2561  -10.2288    4.7553 H         1 <1>         0.1143
     25 H25         4.4302  -10.2508    2.5937 H         1 <1>         0.1215
     26 H26         3.3995   -9.2098    0.6181 H         1 <1>         0.1408
     27 H27         2.8365   -7.9697   -3.0264 H         1 <1>         0.1027
     28 H28        -0.9461   -6.3320   -5.7711 H         1 <1>         0.3330
     29 H29        -2.5761   -6.2015   -3.0852 H         1 <1>         0.3539
@<TRIPOS>BOND
     1    1    2 2
     2    2   20 1
     3    2    3 1
     4    3    4 2
     5    3   21 1
     6    4    5 1
     7    4   11 1
     8    5   10 ar
     9    5    6 ar
    10    6    7 ar
    11    6   22 1
    12    7    8 ar
    13    7   23 1
    14    8    9 ar
    15    8   24 1
    16    9   10 ar
    17    9   25 1
    18   10   26 1
    19   11   12 1
    20   12   20 ar
    21   12   13 ar
    22   13   14 ar
    23   13   27 1
    24   14   15 1
    25   14   16 ar
    26   16   17 1
    27   16   18 ar
    28   17   28 1
    29   18   19 1
    30   18   20 ar
    31   19   29 1
@<TRIPOS>Similarity
1.0249
@<TRIPOS>ShapeSim
0.6340
@<TRIPOS>PharmSim
0.3909
# END
# Name:		C1=CC2=C(C=C1I)C(=CC3=CC(=C(C(=C3)Br)O)Br)C(=O)N2
# Created and modified by SHAFTS on Thu Mar 11 04:22:19 2021

# 

@<TRIPOS>MOLECULE
C1=CC2=C(C=C1I)C(=CC3=CC(=C(C(=C3)Br)O)Br)C(=O)N2
   28    30     0
SMALL
USER_CHARGE


@<TRIPOS>ATOM
      1 O1          1.3783   -8.3287    1.3763 O.2       1 <1>        -0.4740
      2 C2          1.2040   -7.9635    0.2280 C.2       1 <1>         0.1102
      3 N3          2.0398   -8.1727   -0.8033 N.am      1 <1>        -0.3010
      4 C4          1.5412   -7.6252   -1.9798 C.ar      1 <1>        -0.0397
      5 C5          2.0493   -7.5946   -3.2735 C.ar      1 <1>        -0.0616
      6 C6          1.3409   -6.9724   -4.2818 C.ar      1 <1>        -0.0767
      7 C7          0.1199   -6.3733   -4.0200 C.ar      1 <1>        -0.0393
      8 I8         -0.9379   -5.4346   -5.5656 I         1 <1>        -0.1068
      9 C9         -0.4012   -6.3944   -2.7410 C.ar      1 <1>        -0.0605
     10 C10         0.3055   -7.0180   -1.7188 C.ar      1 <1>        -0.0315
     11 C11         0.0372   -7.2203   -0.2767 C.2       1 <1>         0.0360
     12 C12        -1.0543   -6.8071    0.4311 C.2       1 <1>        -0.0553
     13 C13        -2.2265   -6.2779   -0.2720 C.ar      1 <1>        -0.0746
     14 C14        -2.7112   -6.9246   -1.4172 C.ar      1 <1>        -0.0821
     15 C15        -3.8126   -6.4229   -2.0737 C.ar      1 <1>        -0.0066
     16 Br16       -4.4680   -7.2940   -3.6188 Br        1 <1>        -0.1379
     17 C17        -4.4445   -5.2768   -1.6021 C.ar      1 <1>        -0.0247
     18 O18        -5.5305   -4.7871   -2.2526 O.3       1 <1>        -0.5204
     19 C19        -3.9678   -4.6307   -0.4658 C.ar      1 <1>        -0.0085
     20 Br20       -4.8335   -3.0733    0.1674 Br        1 <1>        -0.1447
     21 C21        -2.8703   -5.1264    0.2017 C.ar      1 <1>        -0.0808
     22 H22         2.8840   -8.6456   -0.7353 H         1 <1>         0.3275
     23 H23         3.0004   -8.0583   -3.4901 H         1 <1>         0.1285
     24 H24         1.7427   -6.9522   -5.2841 H         1 <1>         0.1355
     25 H25        -1.3532   -5.9276   -2.5355 H         1 <1>         0.1585
     26 H26        -1.0542   -6.8702    1.5093 H         1 <1>         0.1716
     27 H27        -2.2214   -7.8145   -1.7842 H         1 <1>         0.1307
     28 H28        -2.5013   -4.6244    1.0838 H         1 <1>         0.1383
@<TRIPOS>BOND
     1    1    2 2
     2    2   11 1
     3    2    3 am
     4    3    4 1
     5    3   22 1
     6    4   10 ar
     7    4    5 ar
     8    5    6 ar
     9    5   23 1
    10    6    7 ar
    11    6   24 1
    12    7    8 1
    13    7    9 ar
    14    9   10 ar
    15    9   25 1
    16   10   11 1
    17   11   12 2
    18   12   13 1
    19   12   26 1
    20   13   21 ar
    21   13   14 ar
    22   14   15 ar
    23   14   27 1
    24   15   16 1
    25   15   17 ar
    26   17   18 1
    27   17   19 ar
    28   19   20 1
    29   19   21 ar
    30   21   28 1
@<TRIPOS>Similarity
1.0232
@<TRIPOS>ShapeSim
0.7233
@<TRIPOS>PharmSim
0.2999
# END
# Name:		C1=CC2=C(C=C1I)C(=CC3=CC(=C(C(=C3)Br)O)Br)C(=O)N2
# Created and modified by SHAFTS on Thu Mar 11 04:22:19 2021

# 

@<TRIPOS>MOLECULE
C1=CC2=C(C=C1I)C(=CC3=CC(=C(C(=C3)Br)O)Br)C(=O)N2
   28    30     0
SMALL
USER_CHARGE


@<TRIPOS>ATOM
      1 O1          1.3783   -8.3287    1.3763 O.2       1 <1>        -0.4740
      2 C2          1.2040   -7.9635    0.2280 C.2       1 <1>         0.1102
      3 N3          2.0398   -8.1727   -0.8033 N.am      1 <1>        -0.3010
      4 C4          1.5412   -7.6252   -1.9798 C.ar      1 <1>        -0.0397
      5 C5          2.0493   -7.5946   -3.2735 C.ar      1 <1>        -0.0616
      6 C6          1.3409   -6.9724   -4.2818 C.ar      1 <1>        -0.0767
      7 C7          0.1199   -6.3733   -4.0200 C.ar      1 <1>        -0.0393
      8 I8         -0.9379   -5.4346   -5.5656 I         1 <1>        -0.1068
      9 C9         -0.4012   -6.3944   -2.7410 C.ar      1 <1>        -0.0605
     10 C10         0.3055   -7.0180   -1.7188 C.ar      1 <1>        -0.0315
     11 C11         0.0372   -7.2203   -0.2767 C.2       1 <1>         0.0360
     12 C12        -1.0543   -6.8071    0.4311 C.2       1 <1>        -0.0553
     13 C13        -2.2265   -6.2779   -0.2720 C.ar      1 <1>        -0.0746
     14 C14        -2.7112   -6.9246   -1.4172 C.ar      1 <1>        -0.0821
     15 C15        -3.8126   -6.4229   -2.0737 C.ar      1 <1>        -0.0066
     16 Br16       -4.4680   -7.2940   -3.6188 Br        1 <1>        -0.1379
     17 C17        -4.4445   -5.2768   -1.6021 C.ar      1 <1>        -0.0247
     18 O18        -5.5305   -4.7871   -2.2526 O.3       1 <1>        -0.5204
     19 C19        -3.9678   -4.6307   -0.4658 C.ar      1 <1>        -0.0085
     20 Br20       -4.8335   -3.0733    0.1674 Br        1 <1>        -0.1447
     21 C21        -2.8703   -5.1264    0.2017 C.ar      1 <1>        -0.0808
     22 H22         2.8840   -8.6456   -0.7353 H         1 <1>         0.3275
     23 H23         3.0004   -8.0583   -3.4901 H         1 <1>         0.1285
     24 H24         1.7427   -6.9522   -5.2841 H         1 <1>         0.1355
     25 H25        -1.3532   -5.9276   -2.5355 H         1 <1>         0.1585
     26 H26        -1.0542   -6.8702    1.5093 H         1 <1>         0.1716
     27 H27        -2.2214   -7.8145   -1.7842 H         1 <1>         0.1307
     28 H28        -2.5013   -4.6244    1.0838 H         1 <1>         0.1383
@<TRIPOS>BOND
     1    1    2 2
     2    2   11 1
     3    2    3 am
     4    3    4 1
     5    3   22 1
     6    4   10 ar
     7    4    5 ar
     8    5    6 ar
     9    5   23 1
    10    6    7 ar
    11    6   24 1
    12    7    8 1
    13    7    9 ar
    14    9   10 ar
    15    9   25 1
    16   10   11 1
    17   11   12 2
    18   12   13 1
    19   12   26 1
    20   13   21 ar
    21   13   14 ar
    22   14   15 ar
    23   14   27 1
    24   15   16 1
    25   15   17 ar
    26   17   18 1
    27   17   19 ar
    28   19   20 1
    29   19   21 ar
    30   21   28 1
@<TRIPOS>Similarity
1.0232
@<TRIPOS>ShapeSim
0.7233
@<TRIPOS>PharmSim
0.2999
# END
# Name:		NC1=NC(NC=N2)=C2C(OCC3CCCCC3)=N1
# Created and modified by SHAFTS on Thu Mar 11 04:22:19 2021

# 

@<TRIPOS>MOLECULE
NC1=NC(NC=N2)=C2C(OCC3CCCCC3)=N1
   35    37     0
SMALL
USER_CHARGE


@<TRIPOS>ATOM
      1 N1          1.1902   -7.8128    1.5961 N.pl3     1 <1>        -0.3347
      2 C2          0.8200   -7.3497    0.3434 C.ar      1 <1>         0.0534
      3 N3         -0.1595   -6.4588    0.2538 N.ar      1 <1>        -0.3006
      4 C4         -0.5498   -5.9852   -0.9242 C.ar      1 <1>         0.1116
      5 O5         -1.5507   -5.0753   -1.0062 O.3       1 <1>        -0.3556
      6 C6         -2.1525   -4.6604    0.2218 C.3       1 <1>         0.0352
      7 C7         -3.2535   -3.6387   -0.0695 C.3       1 <1>        -0.0410
      8 C8         -4.3756   -4.3104   -0.8636 C.3       1 <1>        -0.0651
      9 C9         -5.4766   -3.2887   -1.1549 C.3       1 <1>        -0.0738
     10 C10        -6.0360   -2.7518    0.1641 C.3       1 <1>        -0.0753
     11 C11        -4.9139   -2.0800    0.9582 C.3       1 <1>        -0.0720
     12 C12        -3.8129   -3.1018    1.2495 C.3       1 <1>        -0.0633
     13 C13         0.0910   -6.4427   -2.0744 C.ar      1 <1>         0.0771
     14 N14        -0.0295   -6.1938   -3.4275 N.pl3     1 <1>        -0.3211
     15 C15         0.8915   -6.9574   -4.0566 C.2       1 <1>         0.0292
     16 N16         1.5666   -7.6553   -3.1860 N.2       1 <1>        -0.3284
     17 C17         1.1241   -7.3860   -1.9433 C.ar      1 <1>         0.0593
     18 N18         1.4584   -7.8066   -0.7195 N.ar      1 <1>        -0.3080
     19 H19         1.9066   -8.4612    1.6814 H         1 <1>         0.2959
     20 H20         0.7354   -7.4856    2.3880 H         1 <1>         0.2959
     21 H21        -2.5838   -5.5256    0.7254 H         1 <1>         0.1078
     22 H22        -1.3961   -4.2069    0.8621 H         1 <1>         0.1078
     23 H23        -2.8399   -2.8147   -0.6510 H         1 <1>         0.0665
     24 H24        -3.9770   -4.6930   -1.8032 H         1 <1>         0.0495
     25 H25        -4.7892   -5.1345   -0.2822 H         1 <1>         0.0424
     26 H26        -5.0630   -2.4648   -1.7363 H         1 <1>         0.0387
     27 H27        -6.2760   -3.7673   -1.7206 H         1 <1>         0.0387
     28 H28        -6.8203   -2.0239   -0.0434 H         1 <1>         0.0383
     29 H29        -6.4496   -3.5758    0.7455 H         1 <1>         0.0383
     30 H30        -4.5002   -1.2561    0.3767 H         1 <1>         0.0391
     31 H31        -5.3124   -1.6976    1.8978 H         1 <1>         0.0462
     32 H32        -4.2265   -3.9258    1.8309 H         1 <1>         0.0499
     33 H33        -3.0135   -2.6233    1.8151 H         1 <1>         0.0499
     34 H34        -0.6575   -5.5856   -3.8476 H         1 <1>         0.3467
     35 H35         1.0460   -6.9855   -5.1252 H         1 <1>         0.3116
@<TRIPOS>BOND
     1    1    2 1
     2    1   19 1
     3    1   20 1
     4    2   18 ar
     5    2    3 ar
     6    3    4 ar
     7    4    5 1
     8    4   13 ar
     9    5    6 1
    10    6    7 1
    11    6   21 1
    12    6   22 1
    13    7   12 1
    14    7    8 1
    15    7   23 1
    16    8    9 1
    17    8   24 1
    18    8   25 1
    19    9   10 1
    20    9   26 1
    21    9   27 1
    22   10   11 1
    23   10   28 1
    24   10   29 1
    25   11   12 1
    26   11   30 1
    27   11   31 1
    28   12   32 1
    29   12   33 1
    30   13   17 ar
    31   13   14 1
    32   14   15 1
    33   14   34 1
    34   15   16 2
    35   15   35 1
    36   16   17 1
    37   17   18 ar
@<TRIPOS>Similarity
1.0200
@<TRIPOS>ShapeSim
0.7700
@<TRIPOS>PharmSim
0.2500
# END
# Name:		C1=CC=C(C=C1)C(=O)C=CC2=CC=CC=C2O
# Created and modified by SHAFTS on Thu Mar 11 04:22:19 2021

# 

@<TRIPOS>MOLECULE
C1=CC=C(C=C1)C(=O)C=CC2=CC=CC=C2O
   29    30     0
SMALL
USER_CHARGE


@<TRIPOS>ATOM
      1 O1         -1.9769   -5.4372    1.4425 O.2       1 <1>        -0.4648
      2 C2         -2.3319   -5.0122    0.3581 C.2       1 <1>         0.0809
      3 C3         -1.6328   -5.3914   -0.8151 C.2       1 <1>        -0.0148
      4 C4         -0.5712   -6.2256   -0.7300 C.2       1 <1>        -0.0627
      5 C5          0.1530   -6.6185   -1.9453 C.ar      1 <1>        -0.0432
      6 C6         -0.2476   -6.1282   -3.1935 C.ar      1 <1>        -0.0849
      7 C7          0.4370   -6.5016   -4.3292 C.ar      1 <1>        -0.0989
      8 C8          1.5206   -7.3605   -4.2424 C.ar      1 <1>        -0.0965
      9 C9          1.9274   -7.8530   -3.0172 C.ar      1 <1>        -0.0649
     10 C10         1.2562   -7.4847   -1.8623 C.ar      1 <1>        -0.0244
     11 O11         1.6550   -7.9673   -0.6586 O.3       1 <1>        -0.4294
     12 C12        -3.4965   -4.1048    0.2645 C.ar      1 <1>        -0.0089
     13 C13        -3.9096   -3.6203   -0.9779 C.ar      1 <1>        -0.0833
     14 C14        -4.9963   -2.7746   -1.0583 C.ar      1 <1>        -0.0999
     15 C15        -5.6766   -2.4062    0.0891 C.ar      1 <1>        -0.1014
     16 C16        -5.2723   -2.8829    1.3237 C.ar      1 <1>        -0.0968
     17 C17        -4.1907   -3.7339    1.4173 C.ar      1 <1>        -0.0792
     18 H18        -1.9477   -5.0145   -1.7770 H         1 <1>         0.1182
     19 H19        -0.2563   -6.6027    0.2318 H         1 <1>         0.1579
     20 H20        -1.0919   -5.4588   -3.2663 H         1 <1>         0.1307
     21 H21         0.1271   -6.1232   -5.2921 H         1 <1>         0.1196
     22 H22         2.0509   -7.6473   -5.1385 H         1 <1>         0.1261
     23 H23         2.7730   -8.5222   -2.9590 H         1 <1>         0.1247
     24 H24         2.3145   -7.4178   -0.2134 H         1 <1>         0.3661
     25 H25        -3.3792   -3.9068   -1.8741 H         1 <1>         0.1294
     26 H26        -5.3168   -2.3987   -2.0187 H         1 <1>         0.1195
     27 H27        -6.5266   -1.7434    0.0207 H         1 <1>         0.1263
     28 H28        -5.8077   -2.5915    2.2152 H         1 <1>         0.1204
     29 H29        -3.8765   -4.1055    2.3814 H         1 <1>         0.1344
@<TRIPOS>BOND
     1    1    2 2
     2    2    3 1
     3    2   12 1
     4    3    4 2
     5    3   18 1
     6    4    5 1
     7    4   19 1
     8    5   10 ar
     9    5    6 ar
    10    6    7 ar
    11    6   20 1
    12    7    8 ar
    13    7   21 1
    14    8    9 ar
    15    8   22 1
    16    9   10 ar
    17    9   23 1
    18   10   11 1
    19   11   24 1
    20   12   17 ar
    21   12   13 ar
    22   13   14 ar
    23   13   25 1
    24   14   15 ar
    25   14   26 1
    26   15   16 ar
    27   15   27 1
    28   16   17 ar
    29   16   28 1
    30   17   29 1
@<TRIPOS>Similarity
1.0154
@<TRIPOS>ShapeSim
0.7237
@<TRIPOS>PharmSim
0.2917
# END
# Name:		CCC(CO)NC1=NC(=C2C(=N1)N(C=N2)C(C)C)NCC3=CC=CC=C3
# Created and modified by SHAFTS on Thu Mar 11 04:22:19 2021

# 

@<TRIPOS>MOLECULE
CCC(CO)NC1=NC(=C2C(=N1)N(C=N2)C(C)C)NCC3=CC=CC=C3
   52    54     0
SMALL
USER_CHARGE


@<TRIPOS>ATOM
      1 C1          0.3434  -10.0138    3.4248 C.3       1 <1>        -0.0634
      2 C2          1.0882   -8.7479    3.8535 C.3       1 <1>        -0.0392
      3 C3          0.8863   -7.6562    2.8008 C.3       1 <1>        -0.0060
      4 H4         -0.1803   -7.4994    2.6399 H         1 <1>         0.1347
      5 C5          1.5254   -6.3540    3.2875 C.3       1 <1>        -0.0112
      6 O6          2.8979   -6.5884    3.6093 O.3       1 <1>        -0.4910
      7 N7          1.5144   -8.0683    1.5432 N.pl3     1 <1>        -0.3269
      8 C8          1.0609   -7.5518    0.3406 C.ar      1 <1>         0.0625
      9 N9          0.0597   -6.6811    0.3543 N.ar      1 <1>        -0.3062
     10 C10        -0.4105   -6.1577   -0.7725 C.ar      1 <1>         0.0492
     11 N11        -1.4546   -5.2501   -0.7483 N.pl3     1 <1>        -0.3416
     12 C12        -2.0538   -4.8567    0.5294 C.3       1 <1>        -0.0044
     13 C13        -3.1617   -3.8660    0.2808 C.ar      1 <1>        -0.0866
     14 C14        -2.8846   -2.5120    0.2518 C.ar      1 <1>        -0.0984
     15 C15        -3.9010   -1.6032    0.0238 C.ar      1 <1>        -0.1056
     16 C16        -5.1943   -2.0484   -0.1758 C.ar      1 <1>        -0.1075
     17 C17        -5.4713   -3.4024   -0.1478 C.ar      1 <1>        -0.1056
     18 C18        -4.4542   -4.3115    0.0760 C.ar      1 <1>        -0.0984
     19 C19         0.1758   -6.5453   -1.9896 C.ar      1 <1>         0.0829
     20 N20        -0.0367   -6.2294   -3.2910 N.2       1 <1>        -0.3707
     21 C21         0.8025   -6.8849   -4.0383 C.2       1 <1>         0.0228
     22 N22         1.6078   -7.6648   -3.2605 N.pl3     1 <1>        -0.3164
     23 C23         2.6768   -8.5483   -3.7325 C.3       1 <1>        -0.0098
     24 C24         2.0889   -9.6036   -4.6714 C.3       1 <1>        -0.0388
     25 C25         3.7249   -7.7247   -4.4835 C.3       1 <1>        -0.0388
     26 C26         1.2329   -7.4695   -1.9553 C.ar      1 <1>         0.0467
     27 N27         1.6445   -7.9394   -0.7819 N.ar      1 <1>        -0.3270
     28 H28        -0.7200   -9.7946    3.3282 H         1 <1>         0.0280
     29 H29         0.7323  -10.3571    2.4662 H         1 <1>         0.0351
     30 H30         0.4873  -10.7916    4.1748 H         1 <1>         0.0351
     31 H31         0.6994   -8.4047    4.8122 H         1 <1>         0.0625
     32 H32         2.1516   -8.9672    3.9503 H         1 <1>         0.0625
     33 H33         1.4599   -5.6014    2.5018 H         1 <1>         0.0846
     34 H34         0.9996   -6.0004    4.1742 H         1 <1>         0.0846
     35 H35         3.3671   -5.8042    3.9255 H         1 <1>         0.3214
     36 H36         2.2480   -8.7030    1.5526 H         1 <1>         0.3192
     37 H37        -1.7898   -4.8743   -1.5773 H         1 <1>         0.3212
     38 H38        -2.4590   -5.7377    1.0272 H         1 <1>         0.1205
     39 H39        -1.2928   -4.3997    1.1621 H         1 <1>         0.1205
     40 H40        -1.8740   -2.1642    0.4078 H         1 <1>         0.1177
     41 H41        -3.6845   -0.5453    0.0020 H         1 <1>         0.1128
     42 H42        -5.9884   -1.3383   -0.3533 H         1 <1>         0.1142
     43 H43        -6.4818   -3.7503   -0.3034 H         1 <1>         0.1128
     44 H44        -4.6706   -5.3693    0.0979 H         1 <1>         0.1177
     45 H45         0.8538   -6.8215   -5.1151 H         1 <1>         0.2792
     46 H46         3.1443   -9.0408   -2.8798 H         1 <1>         0.1311
     47 H47         1.6214   -9.1112   -5.5242 H         1 <1>         0.0506
     48 H48         2.8842  -10.2611   -5.0227 H         1 <1>         0.0578
     49 H49         1.3422  -10.1904   -4.1365 H         1 <1>         0.0435
     50 H50         4.1438   -6.9729   -3.8145 H         1 <1>         0.0435
     51 H51         4.5203   -8.3822   -4.8347 H         1 <1>         0.0578
     52 H52         3.2575   -7.2323   -5.3361 H         1 <1>         0.0506
@<TRIPOS>BOND
     1    1    2 1
     2    1   28 1
     3    1   29 1
     4    1   30 1
     5    2    3 1
     6    2   31 1
     7    2   32 1
     8    3    4 1
     9    3    5 1
    10    3    7 1
    11    5    6 1
    12    5   33 1
    13    5   34 1
    14    6   35 1
    15    7    8 1
    16    7   36 1
    17    8   27 ar
    18    8    9 ar
    19    9   10 ar
    20   10   11 1
    21   10   19 ar
    22   11   12 1
    23   11   37 1
    24   12   13 1
    25   12   38 1
    26   12   39 1
    27   13   18 ar
    28   13   14 ar
    29   14   15 ar
    30   14   40 1
    31   15   16 ar
    32   15   41 1
    33   16   17 ar
    34   16   42 1
    35   17   18 ar
    36   17   43 1
    37   18   44 1
    38   19   26 ar
    39   19   20 1
    40   20   21 2
    41   21   22 1
    42   21   45 1
    43   22   23 1
    44   22   26 1
    45   23   24 1
    46   23   25 1
    47   23   46 1
    48   24   47 1
    49   24   48 1
    50   24   49 1
    51   25   50 1
    52   25   51 1
    53   25   52 1
    54   26   27 ar
@<TRIPOS>Similarity
1.0130
@<TRIPOS>ShapeSim
0.7472
@<TRIPOS>PharmSim
0.2659
# END
# Name:		CCC(CO)NC1=NC(=C2C(=N1)N(C=N2)C(C)C)NCC3=CC=CC=C3
# Created and modified by SHAFTS on Thu Mar 11 04:22:19 2021

# 

@<TRIPOS>MOLECULE
CCC(CO)NC1=NC(=C2C(=N1)N(C=N2)C(C)C)NCC3=CC=CC=C3
   52    54     0
SMALL
USER_CHARGE


@<TRIPOS>ATOM
      1 C1          0.3434  -10.0138    3.4248 C.3       1 <1>        -0.0634
      2 C2          1.0882   -8.7479    3.8535 C.3       1 <1>        -0.0392
      3 C3          0.8863   -7.6562    2.8008 C.3       1 <1>        -0.0060
      4 H4         -0.1803   -7.4994    2.6399 H         1 <1>         0.1347
      5 C5          1.5254   -6.3540    3.2875 C.3       1 <1>        -0.0112
      6 O6          2.8979   -6.5884    3.6093 O.3       1 <1>        -0.4910
      7 N7          1.5144   -8.0683    1.5432 N.pl3     1 <1>        -0.3269
      8 C8          1.0609   -7.5518    0.3406 C.ar      1 <1>         0.0625
      9 N9          0.0597   -6.6811    0.3543 N.ar      1 <1>        -0.3062
     10 C10        -0.4105   -6.1577   -0.7725 C.ar      1 <1>         0.0492
     11 N11        -1.4546   -5.2501   -0.7483 N.pl3     1 <1>        -0.3416
     12 C12        -2.0538   -4.8567    0.5294 C.3       1 <1>        -0.0044
     13 C13        -3.1617   -3.8660    0.2808 C.ar      1 <1>        -0.0866
     14 C14        -2.8846   -2.5120    0.2518 C.ar      1 <1>        -0.0984
     15 C15        -3.9010   -1.6032    0.0238 C.ar      1 <1>        -0.1056
     16 C16        -5.1943   -2.0484   -0.1758 C.ar      1 <1>        -0.1075
     17 C17        -5.4713   -3.4024   -0.1478 C.ar      1 <1>        -0.1056
     18 C18        -4.4542   -4.3115    0.0760 C.ar      1 <1>        -0.0984
     19 C19         0.1758   -6.5453   -1.9896 C.ar      1 <1>         0.0829
     20 N20        -0.0367   -6.2294   -3.2910 N.2       1 <1>        -0.3707
     21 C21         0.8025   -6.8849   -4.0383 C.2       1 <1>         0.0228
     22 N22         1.6078   -7.6648   -3.2605 N.pl3     1 <1>        -0.3164
     23 C23         2.6768   -8.5483   -3.7325 C.3       1 <1>        -0.0098
     24 C24         2.0889   -9.6036   -4.6714 C.3       1 <1>        -0.0388
     25 C25         3.7249   -7.7247   -4.4835 C.3       1 <1>        -0.0388
     26 C26         1.2329   -7.4695   -1.9553 C.ar      1 <1>         0.0467
     27 N27         1.6445   -7.9394   -0.7819 N.ar      1 <1>        -0.3270
     28 H28        -0.7200   -9.7946    3.3282 H         1 <1>         0.0280
     29 H29         0.7323  -10.3571    2.4662 H         1 <1>         0.0351
     30 H30         0.4873  -10.7916    4.1748 H         1 <1>         0.0351
     31 H31         0.6994   -8.4047    4.8122 H         1 <1>         0.0625
     32 H32         2.1516   -8.9672    3.9503 H         1 <1>         0.0625
     33 H33         1.4599   -5.6014    2.5018 H         1 <1>         0.0846
     34 H34         0.9996   -6.0004    4.1742 H         1 <1>         0.0846
     35 H35         3.3671   -5.8042    3.9255 H         1 <1>         0.3214
     36 H36         2.2480   -8.7030    1.5526 H         1 <1>         0.3192
     37 H37        -1.7898   -4.8743   -1.5773 H         1 <1>         0.3212
     38 H38        -2.4590   -5.7377    1.0272 H         1 <1>         0.1205
     39 H39        -1.2928   -4.3997    1.1621 H         1 <1>         0.1205
     40 H40        -1.8740   -2.1642    0.4078 H         1 <1>         0.1177
     41 H41        -3.6845   -0.5453    0.0020 H         1 <1>         0.1128
     42 H42        -5.9884   -1.3383   -0.3533 H         1 <1>         0.1142
     43 H43        -6.4818   -3.7503   -0.3034 H         1 <1>         0.1128
     44 H44        -4.6706   -5.3693    0.0979 H         1 <1>         0.1177
     45 H45         0.8538   -6.8215   -5.1151 H         1 <1>         0.2792
     46 H46         3.1443   -9.0408   -2.8798 H         1 <1>         0.1311
     47 H47         1.6214   -9.1112   -5.5242 H         1 <1>         0.0506
     48 H48         2.8842  -10.2611   -5.0227 H         1 <1>         0.0578
     49 H49         1.3422  -10.1904   -4.1365 H         1 <1>         0.0435
     50 H50         4.1438   -6.9729   -3.8145 H         1 <1>         0.0435
     51 H51         4.5203   -8.3822   -4.8347 H         1 <1>         0.0578
     52 H52         3.2575   -7.2323   -5.3361 H         1 <1>         0.0506
@<TRIPOS>BOND
     1    1    2 1
     2    1   28 1
     3    1   29 1
     4    1   30 1
     5    2    3 1
     6    2   31 1
     7    2   32 1
     8    3    4 1
     9    3    5 1
    10    3    7 1
    11    5    6 1
    12    5   33 1
    13    5   34 1
    14    6   35 1
    15    7    8 1
    16    7   36 1
    17    8   27 ar
    18    8    9 ar
    19    9   10 ar
    20   10   11 1
    21   10   19 ar
    22   11   12 1
    23   11   37 1
    24   12   13 1
    25   12   38 1
    26   12   39 1
    27   13   18 ar
    28   13   14 ar
    29   14   15 ar
    30   14   40 1
    31   15   16 ar
    32   15   41 1
    33   16   17 ar
    34   16   42 1
    35   17   18 ar
    36   17   43 1
    37   18   44 1
    38   19   26 ar
    39   19   20 1
    40   20   21 2
    41   21   22 1
    42   21   45 1
    43   22   23 1
    44   22   26 1
    45   23   24 1
    46   23   25 1
    47   23   46 1
    48   24   47 1
    49   24   48 1
    50   24   49 1
    51   25   50 1
    52   25   51 1
    53   25   52 1
    54   26   27 ar
@<TRIPOS>Similarity
1.0130
@<TRIPOS>ShapeSim
0.7472
@<TRIPOS>PharmSim
0.2659
# END
# Name:		CC[C@H](CO)NC1=NC(=C2C(=N1)N(C=N2)C(C)C)NCC3=CC=CC=C3
# Created and modified by SHAFTS on Thu Mar 11 04:22:19 2021

# 

@<TRIPOS>MOLECULE
CC[C@H](CO)NC1=NC(=C2C(=N1)N(C=N2)C(C)C)NCC3=CC=CC=C3
   52    54     0
SMALL
USER_CHARGE


@<TRIPOS>ATOM
      1 C1          0.3434  -10.0138    3.4248 C.3       1 <1>        -0.0634
      2 C2          1.0882   -8.7479    3.8535 C.3       1 <1>        -0.0392
      3 C3          0.8863   -7.6562    2.8008 C.3       1 <1>        -0.0060
      4 H4         -0.1803   -7.4994    2.6399 H         1 <1>         0.1347
      5 C5          1.5254   -6.3540    3.2875 C.3       1 <1>        -0.0112
      6 O6          2.8979   -6.5884    3.6093 O.3       1 <1>        -0.4910
      7 N7          1.5144   -8.0683    1.5432 N.pl3     1 <1>        -0.3269
      8 C8          1.0609   -7.5518    0.3406 C.ar      1 <1>         0.0625
      9 N9          0.0597   -6.6811    0.3543 N.ar      1 <1>        -0.3062
     10 C10        -0.4105   -6.1577   -0.7725 C.ar      1 <1>         0.0492
     11 N11        -1.4546   -5.2501   -0.7483 N.pl3     1 <1>        -0.3416
     12 C12        -2.0538   -4.8567    0.5294 C.3       1 <1>        -0.0044
     13 C13        -3.1617   -3.8660    0.2808 C.ar      1 <1>        -0.0866
     14 C14        -2.8846   -2.5120    0.2518 C.ar      1 <1>        -0.0984
     15 C15        -3.9010   -1.6032    0.0238 C.ar      1 <1>        -0.1056
     16 C16        -5.1943   -2.0484   -0.1758 C.ar      1 <1>        -0.1075
     17 C17        -5.4713   -3.4024   -0.1478 C.ar      1 <1>        -0.1056
     18 C18        -4.4542   -4.3115    0.0760 C.ar      1 <1>        -0.0984
     19 C19         0.1758   -6.5453   -1.9896 C.ar      1 <1>         0.0829
     20 N20        -0.0367   -6.2294   -3.2910 N.2       1 <1>        -0.3707
     21 C21         0.8025   -6.8849   -4.0383 C.2       1 <1>         0.0228
     22 N22         1.6078   -7.6648   -3.2605 N.pl3     1 <1>        -0.3164
     23 C23         2.6768   -8.5483   -3.7325 C.3       1 <1>        -0.0098
     24 C24         2.0889   -9.6036   -4.6714 C.3       1 <1>        -0.0388
     25 C25         3.7249   -7.7247   -4.4835 C.3       1 <1>        -0.0388
     26 C26         1.2329   -7.4695   -1.9553 C.ar      1 <1>         0.0467
     27 N27         1.6445   -7.9394   -0.7819 N.ar      1 <1>        -0.3270
     28 H28        -0.7200   -9.7946    3.3282 H         1 <1>         0.0280
     29 H29         0.7323  -10.3571    2.4662 H         1 <1>         0.0351
     30 H30         0.4873  -10.7916    4.1748 H         1 <1>         0.0351
     31 H31         0.6994   -8.4047    4.8122 H         1 <1>         0.0625
     32 H32         2.1516   -8.9672    3.9503 H         1 <1>         0.0625
     33 H33         1.4599   -5.6014    2.5018 H         1 <1>         0.0846
     34 H34         0.9996   -6.0004    4.1742 H         1 <1>         0.0846
     35 H35         3.3671   -5.8042    3.9255 H         1 <1>         0.3214
     36 H36         2.2480   -8.7030    1.5526 H         1 <1>         0.3192
     37 H37        -1.7898   -4.8743   -1.5773 H         1 <1>         0.3212
     38 H38        -2.4590   -5.7377    1.0272 H         1 <1>         0.1205
     39 H39        -1.2928   -4.3997    1.1621 H         1 <1>         0.1205
     40 H40        -1.8740   -2.1642    0.4078 H         1 <1>         0.1177
     41 H41        -3.6845   -0.5453    0.0020 H         1 <1>         0.1128
     42 H42        -5.9884   -1.3383   -0.3533 H         1 <1>         0.1142
     43 H43        -6.4818   -3.7503   -0.3034 H         1 <1>         0.1128
     44 H44        -4.6706   -5.3693    0.0979 H         1 <1>         0.1177
     45 H45         0.8538   -6.8215   -5.1151 H         1 <1>         0.2792
     46 H46         3.1443   -9.0408   -2.8798 H         1 <1>         0.1311
     47 H47         1.6214   -9.1112   -5.5242 H         1 <1>         0.0506
     48 H48         2.8842  -10.2611   -5.0227 H         1 <1>         0.0578
     49 H49         1.3422  -10.1904   -4.1365 H         1 <1>         0.0435
     50 H50         4.1438   -6.9729   -3.8145 H         1 <1>         0.0435
     51 H51         4.5203   -8.3822   -4.8347 H         1 <1>         0.0578
     52 H52         3.2575   -7.2323   -5.3361 H         1 <1>         0.0506
@<TRIPOS>BOND
     1    1    2 1
     2    1   28 1
     3    1   29 1
     4    1   30 1
     5    2    3 1
     6    2   31 1
     7    2   32 1
     8    3    4 1
     9    3    5 1
    10    3    7 1
    11    5    6 1
    12    5   33 1
    13    5   34 1
    14    6   35 1
    15    7    8 1
    16    7   36 1
    17    8   27 ar
    18    8    9 ar
    19    9   10 ar
    20   10   11 1
    21   10   19 ar
    22   11   12 1
    23   11   37 1
    24   12   13 1
    25   12   38 1
    26   12   39 1
    27   13   18 ar
    28   13   14 ar
    29   14   15 ar
    30   14   40 1
    31   15   16 ar
    32   15   41 1
    33   16   17 ar
    34   16   42 1
    35   17   18 ar
    36   17   43 1
    37   18   44 1
    38   19   26 ar
    39   19   20 1
    40   20   21 2
    41   21   22 1
    42   21   45 1
    43   22   23 1
    44   22   26 1
    45   23   24 1
    46   23   25 1
    47   23   46 1
    48   24   47 1
    49   24   48 1
    50   24   49 1
    51   25   50 1
    52   25   51 1
    53   25   52 1
    54   26   27 ar
@<TRIPOS>Similarity
1.0130
@<TRIPOS>ShapeSim
0.7472
@<TRIPOS>PharmSim
0.2659
# END
# Name:		CC(C)N(C=N1)C2=C1C(NCC3=CC=CC=C3)=NC(NC(CC)CO)=N2
# Created and modified by SHAFTS on Thu Mar 11 04:22:19 2021

# 

@<TRIPOS>MOLECULE
CC(C)N(C=N1)C2=C1C(NCC3=CC=CC=C3)=NC(NC(CC)CO)=N2
   52    54     0
SMALL
USER_CHARGE


@<TRIPOS>ATOM
      1 C1          0.3434  -10.0138    3.4248 C.3       1 <1>        -0.0634
      2 C2          1.0882   -8.7479    3.8535 C.3       1 <1>        -0.0392
      3 C3          0.8863   -7.6562    2.8008 C.3       1 <1>        -0.0060
      4 H4         -0.1803   -7.4994    2.6399 H         1 <1>         0.1347
      5 C5          1.5254   -6.3540    3.2875 C.3       1 <1>        -0.0112
      6 O6          2.8979   -6.5884    3.6093 O.3       1 <1>        -0.4910
      7 N7          1.5144   -8.0683    1.5432 N.pl3     1 <1>        -0.3269
      8 C8          1.0609   -7.5518    0.3406 C.ar      1 <1>         0.0625
      9 N9          0.0597   -6.6811    0.3543 N.ar      1 <1>        -0.3062
     10 C10        -0.4105   -6.1577   -0.7725 C.ar      1 <1>         0.0492
     11 N11        -1.4546   -5.2501   -0.7483 N.pl3     1 <1>        -0.3416
     12 C12        -2.0538   -4.8567    0.5294 C.3       1 <1>        -0.0044
     13 C13        -3.1617   -3.8660    0.2808 C.ar      1 <1>        -0.0866
     14 C14        -2.8846   -2.5120    0.2518 C.ar      1 <1>        -0.0984
     15 C15        -3.9010   -1.6032    0.0238 C.ar      1 <1>        -0.1056
     16 C16        -5.1943   -2.0484   -0.1758 C.ar      1 <1>        -0.1075
     17 C17        -5.4713   -3.4024   -0.1478 C.ar      1 <1>        -0.1056
     18 C18        -4.4542   -4.3115    0.0760 C.ar      1 <1>        -0.0984
     19 C19         0.1758   -6.5453   -1.9896 C.ar      1 <1>         0.0829
     20 N20        -0.0367   -6.2294   -3.2910 N.2       1 <1>        -0.3707
     21 C21         0.8025   -6.8849   -4.0383 C.2       1 <1>         0.0228
     22 N22         1.6078   -7.6648   -3.2605 N.pl3     1 <1>        -0.3164
     23 C23         2.6768   -8.5483   -3.7325 C.3       1 <1>        -0.0098
     24 C24         2.0889   -9.6036   -4.6714 C.3       1 <1>        -0.0388
     25 C25         3.7249   -7.7247   -4.4835 C.3       1 <1>        -0.0388
     26 C26         1.2329   -7.4695   -1.9553 C.ar      1 <1>         0.0467
     27 N27         1.6445   -7.9394   -0.7819 N.ar      1 <1>        -0.3270
     28 H28        -0.7200   -9.7946    3.3282 H         1 <1>         0.0280
     29 H29         0.7323  -10.3571    2.4662 H         1 <1>         0.0351
     30 H30         0.4873  -10.7916    4.1748 H         1 <1>         0.0351
     31 H31         0.6994   -8.4047    4.8122 H         1 <1>         0.0625
     32 H32         2.1516   -8.9672    3.9503 H         1 <1>         0.0625
     33 H33         1.4599   -5.6014    2.5018 H         1 <1>         0.0846
     34 H34         0.9996   -6.0004    4.1742 H         1 <1>         0.0846
     35 H35         3.3671   -5.8042    3.9255 H         1 <1>         0.3214
     36 H36         2.2480   -8.7030    1.5526 H         1 <1>         0.3192
     37 H37        -1.7898   -4.8743   -1.5773 H         1 <1>         0.3212
     38 H38        -2.4590   -5.7377    1.0272 H         1 <1>         0.1205
     39 H39        -1.2928   -4.3997    1.1621 H         1 <1>         0.1205
     40 H40        -1.8740   -2.1642    0.4078 H         1 <1>         0.1177
     41 H41        -3.6845   -0.5453    0.0020 H         1 <1>         0.1128
     42 H42        -5.9884   -1.3383   -0.3533 H         1 <1>         0.1142
     43 H43        -6.4818   -3.7503   -0.3034 H         1 <1>         0.1128
     44 H44        -4.6706   -5.3693    0.0979 H         1 <1>         0.1177
     45 H45         0.8538   -6.8215   -5.1151 H         1 <1>         0.2792
     46 H46         3.1443   -9.0408   -2.8798 H         1 <1>         0.1311
     47 H47         1.6214   -9.1112   -5.5242 H         1 <1>         0.0506
     48 H48         2.8842  -10.2611   -5.0227 H         1 <1>         0.0578
     49 H49         1.3422  -10.1904   -4.1365 H         1 <1>         0.0435
     50 H50         4.1438   -6.9729   -3.8145 H         1 <1>         0.0435
     51 H51         4.5203   -8.3822   -4.8347 H         1 <1>         0.0578
     52 H52         3.2575   -7.2323   -5.3361 H         1 <1>         0.0506
@<TRIPOS>BOND
     1    1    2 1
     2    1   28 1
     3    1   29 1
     4    1   30 1
     5    2    3 1
     6    2   31 1
     7    2   32 1
     8    3    4 1
     9    3    5 1
    10    3    7 1
    11    5    6 1
    12    5   33 1
    13    5   34 1
    14    6   35 1
    15    7    8 1
    16    7   36 1
    17    8   27 ar
    18    8    9 ar
    19    9   10 ar
    20   10   11 1
    21   10   19 ar
    22   11   12 1
    23   11   37 1
    24   12   13 1
    25   12   38 1
    26   12   39 1
    27   13   18 ar
    28   13   14 ar
    29   14   15 ar
    30   14   40 1
    31   15   16 ar
    32   15   41 1
    33   16   17 ar
    34   16   42 1
    35   17   18 ar
    36   17   43 1
    37   18   44 1
    38   19   26 ar
    39   19   20 1
    40   20   21 2
    41   21   22 1
    42   21   45 1
    43   22   23 1
    44   22   26 1
    45   23   24 1
    46   23   25 1
    47   23   46 1
    48   24   47 1
    49   24   48 1
    50   24   49 1
    51   25   50 1
    52   25   51 1
    53   25   52 1
    54   26   27 ar
@<TRIPOS>Similarity
1.0130
@<TRIPOS>ShapeSim
0.7472
@<TRIPOS>PharmSim
0.2659
# END
# Name:		CCC(CO)NC1=NC(=C2C(=N1)N(C=N2)C(C)C)NCC3=CC=CC=C3
# Created and modified by SHAFTS on Thu Mar 11 04:22:19 2021

# 

@<TRIPOS>MOLECULE
CCC(CO)NC1=NC(=C2C(=N1)N(C=N2)C(C)C)NCC3=CC=CC=C3
   52    54     0
SMALL
USER_CHARGE


@<TRIPOS>ATOM
      1 C1          0.3434  -10.0138    3.4248 C.3       1 <1>        -0.0634
      2 C2          1.0882   -8.7479    3.8535 C.3       1 <1>        -0.0392
      3 C3          0.8863   -7.6562    2.8008 C.3       1 <1>        -0.0060
      4 H4         -0.1803   -7.4994    2.6399 H         1 <1>         0.1347
      5 C5          1.5254   -6.3540    3.2875 C.3       1 <1>        -0.0112
      6 O6          2.8979   -6.5884    3.6093 O.3       1 <1>        -0.4910
      7 N7          1.5144   -8.0683    1.5432 N.pl3     1 <1>        -0.3269
      8 C8          1.0609   -7.5518    0.3406 C.ar      1 <1>         0.0625
      9 N9          0.0597   -6.6811    0.3543 N.ar      1 <1>        -0.3062
     10 C10        -0.4105   -6.1577   -0.7725 C.ar      1 <1>         0.0492
     11 N11        -1.4546   -5.2501   -0.7483 N.pl3     1 <1>        -0.3416
     12 C12        -2.0538   -4.8567    0.5294 C.3       1 <1>        -0.0044
     13 C13        -3.1617   -3.8660    0.2808 C.ar      1 <1>        -0.0866
     14 C14        -2.8846   -2.5120    0.2518 C.ar      1 <1>        -0.0984
     15 C15        -3.9010   -1.6032    0.0238 C.ar      1 <1>        -0.1056
     16 C16        -5.1943   -2.0484   -0.1758 C.ar      1 <1>        -0.1075
     17 C17        -5.4713   -3.4024   -0.1478 C.ar      1 <1>        -0.1056
     18 C18        -4.4542   -4.3115    0.0760 C.ar      1 <1>        -0.0984
     19 C19         0.1758   -6.5453   -1.9896 C.ar      1 <1>         0.0829
     20 N20        -0.0367   -6.2294   -3.2910 N.2       1 <1>        -0.3707
     21 C21         0.8025   -6.8849   -4.0383 C.2       1 <1>         0.0228
     22 N22         1.6078   -7.6648   -3.2605 N.pl3     1 <1>        -0.3164
     23 C23         2.6768   -8.5483   -3.7325 C.3       1 <1>        -0.0098
     24 C24         2.0889   -9.6036   -4.6714 C.3       1 <1>        -0.0388
     25 C25         3.7249   -7.7247   -4.4835 C.3       1 <1>        -0.0388
     26 C26         1.2329   -7.4695   -1.9553 C.ar      1 <1>         0.0467
     27 N27         1.6445   -7.9394   -0.7819 N.ar      1 <1>        -0.3270
     28 H28        -0.7200   -9.7946    3.3282 H         1 <1>         0.0280
     29 H29         0.7323  -10.3571    2.4662 H         1 <1>         0.0351
     30 H30         0.4873  -10.7916    4.1748 H         1 <1>         0.0351
     31 H31         0.6994   -8.4047    4.8122 H         1 <1>         0.0625
     32 H32         2.1516   -8.9672    3.9503 H         1 <1>         0.0625
     33 H33         1.4599   -5.6014    2.5018 H         1 <1>         0.0846
     34 H34         0.9996   -6.0004    4.1742 H         1 <1>         0.0846
     35 H35         3.3671   -5.8042    3.9255 H         1 <1>         0.3214
     36 H36         2.2480   -8.7030    1.5526 H         1 <1>         0.3192
     37 H37        -1.7898   -4.8743   -1.5773 H         1 <1>         0.3212
     38 H38        -2.4590   -5.7377    1.0272 H         1 <1>         0.1205
     39 H39        -1.2928   -4.3997    1.1621 H         1 <1>         0.1205
     40 H40        -1.8740   -2.1642    0.4078 H         1 <1>         0.1177
     41 H41        -3.6845   -0.5453    0.0020 H         1 <1>         0.1128
     42 H42        -5.9884   -1.3383   -0.3533 H         1 <1>         0.1142
     43 H43        -6.4818   -3.7503   -0.3034 H         1 <1>         0.1128
     44 H44        -4.6706   -5.3693    0.0979 H         1 <1>         0.1177
     45 H45         0.8538   -6.8215   -5.1151 H         1 <1>         0.2792
     46 H46         3.1443   -9.0408   -2.8798 H         1 <1>         0.1311
     47 H47         1.6214   -9.1112   -5.5242 H         1 <1>         0.0506
     48 H48         2.8842  -10.2611   -5.0227 H         1 <1>         0.0578
     49 H49         1.3422  -10.1904   -4.1365 H         1 <1>         0.0435
     50 H50         4.1438   -6.9729   -3.8145 H         1 <1>         0.0435
     51 H51         4.5203   -8.3822   -4.8347 H         1 <1>         0.0578
     52 H52         3.2575   -7.2323   -5.3361 H         1 <1>         0.0506
@<TRIPOS>BOND
     1    1    2 1
     2    1   28 1
     3    1   29 1
     4    1   30 1
     5    2    3 1
     6    2   31 1
     7    2   32 1
     8    3    4 1
     9    3    5 1
    10    3    7 1
    11    5    6 1
    12    5   33 1
    13    5   34 1
    14    6   35 1
    15    7    8 1
    16    7   36 1
    17    8   27 ar
    18    8    9 ar
    19    9   10 ar
    20   10   11 1
    21   10   19 ar
    22   11   12 1
    23   11   37 1
    24   12   13 1
    25   12   38 1
    26   12   39 1
    27   13   18 ar
    28   13   14 ar
    29   14   15 ar
    30   14   40 1
    31   15   16 ar
    32   15   41 1
    33   16   17 ar
    34   16   42 1
    35   17   18 ar
    36   17   43 1
    37   18   44 1
    38   19   26 ar
    39   19   20 1
    40   20   21 2
    41   21   22 1
    42   21   45 1
    43   22   23 1
    44   22   26 1
    45   23   24 1
    46   23   25 1
    47   23   46 1
    48   24   47 1
    49   24   48 1
    50   24   49 1
    51   25   50 1
    52   25   51 1
    53   25   52 1
    54   26   27 ar
@<TRIPOS>Similarity
1.0130
@<TRIPOS>ShapeSim
0.7472
@<TRIPOS>PharmSim
0.2659
# END
# Name:		CC(C)N(C=N1)C2=C1C(NCC3=CC=CC=C3)=N/C(N2)=N\C(CC)CO
# Created and modified by SHAFTS on Thu Mar 11 04:22:19 2021

# 

@<TRIPOS>MOLECULE
CC(C)N(C=N1)C2=C1C(NCC3=CC=CC=C3)=N/C(N2)=N\C(CC)CO
   52    54     0
SMALL
USER_CHARGE


@<TRIPOS>ATOM
      1 C1          0.3434  -10.0138    3.4248 C.3       1 <1>        -0.0634
      2 C2          1.0882   -8.7479    3.8535 C.3       1 <1>        -0.0392
      3 C3          0.8863   -7.6562    2.8008 C.3       1 <1>        -0.0060
      4 H4         -0.1803   -7.4994    2.6399 H         1 <1>         0.1347
      5 C5          1.5254   -6.3540    3.2875 C.3       1 <1>        -0.0112
      6 O6          2.8979   -6.5884    3.6093 O.3       1 <1>        -0.4910
      7 N7          1.5144   -8.0683    1.5432 N.pl3     1 <1>        -0.3269
      8 C8          1.0609   -7.5518    0.3406 C.ar      1 <1>         0.0625
      9 N9          0.0597   -6.6811    0.3543 N.ar      1 <1>        -0.3062
     10 C10        -0.4105   -6.1577   -0.7725 C.ar      1 <1>         0.0492
     11 N11        -1.4546   -5.2501   -0.7483 N.pl3     1 <1>        -0.3416
     12 C12        -2.0538   -4.8567    0.5294 C.3       1 <1>        -0.0044
     13 C13        -3.1617   -3.8660    0.2808 C.ar      1 <1>        -0.0866
     14 C14        -2.8846   -2.5120    0.2518 C.ar      1 <1>        -0.0984
     15 C15        -3.9010   -1.6032    0.0238 C.ar      1 <1>        -0.1056
     16 C16        -5.1943   -2.0484   -0.1758 C.ar      1 <1>        -0.1075
     17 C17        -5.4713   -3.4024   -0.1478 C.ar      1 <1>        -0.1056
     18 C18        -4.4542   -4.3115    0.0760 C.ar      1 <1>        -0.0984
     19 C19         0.1758   -6.5453   -1.9896 C.ar      1 <1>         0.0829
     20 N20        -0.0367   -6.2294   -3.2910 N.2       1 <1>        -0.3707
     21 C21         0.8025   -6.8849   -4.0383 C.2       1 <1>         0.0228
     22 N22         1.6078   -7.6648   -3.2605 N.pl3     1 <1>        -0.3164
     23 C23         2.6768   -8.5483   -3.7325 C.3       1 <1>        -0.0098
     24 C24         2.0889   -9.6036   -4.6714 C.3       1 <1>        -0.0388
     25 C25         3.7249   -7.7247   -4.4835 C.3       1 <1>        -0.0388
     26 C26         1.2329   -7.4695   -1.9553 C.ar      1 <1>         0.0467
     27 N27         1.6445   -7.9394   -0.7819 N.ar      1 <1>        -0.3270
     28 H28        -0.7200   -9.7946    3.3282 H         1 <1>         0.0280
     29 H29         0.7323  -10.3571    2.4662 H         1 <1>         0.0351
     30 H30         0.4873  -10.7916    4.1748 H         1 <1>         0.0351
     31 H31         0.6994   -8.4047    4.8122 H         1 <1>         0.0625
     32 H32         2.1516   -8.9672    3.9503 H         1 <1>         0.0625
     33 H33         1.4599   -5.6014    2.5018 H         1 <1>         0.0846
     34 H34         0.9996   -6.0004    4.1742 H         1 <1>         0.0846
     35 H35         3.3671   -5.8042    3.9255 H         1 <1>         0.3214
     36 H36         2.2480   -8.7030    1.5526 H         1 <1>         0.3192
     37 H37        -1.7898   -4.8743   -1.5773 H         1 <1>         0.3212
     38 H38        -2.4590   -5.7377    1.0272 H         1 <1>         0.1205
     39 H39        -1.2928   -4.3997    1.1621 H         1 <1>         0.1205
     40 H40        -1.8740   -2.1642    0.4078 H         1 <1>         0.1177
     41 H41        -3.6845   -0.5453    0.0020 H         1 <1>         0.1128
     42 H42        -5.9884   -1.3383   -0.3533 H         1 <1>         0.1142
     43 H43        -6.4818   -3.7503   -0.3034 H         1 <1>         0.1128
     44 H44        -4.6706   -5.3693    0.0979 H         1 <1>         0.1177
     45 H45         0.8538   -6.8215   -5.1151 H         1 <1>         0.2792
     46 H46         3.1443   -9.0408   -2.8798 H         1 <1>         0.1311
     47 H47         1.6214   -9.1112   -5.5242 H         1 <1>         0.0506
     48 H48         2.8842  -10.2611   -5.0227 H         1 <1>         0.0578
     49 H49         1.3422  -10.1904   -4.1365 H         1 <1>         0.0435
     50 H50         4.1438   -6.9729   -3.8145 H         1 <1>         0.0435
     51 H51         4.5203   -8.3822   -4.8347 H         1 <1>         0.0578
     52 H52         3.2575   -7.2323   -5.3361 H         1 <1>         0.0506
@<TRIPOS>BOND
     1    1    2 1
     2    1   28 1
     3    1   29 1
     4    1   30 1
     5    2    3 1
     6    2   31 1
     7    2   32 1
     8    3    4 1
     9    3    5 1
    10    3    7 1
    11    5    6 1
    12    5   33 1
    13    5   34 1
    14    6   35 1
    15    7    8 1
    16    7   36 1
    17    8   27 ar
    18    8    9 ar
    19    9   10 ar
    20   10   11 1
    21   10   19 ar
    22   11   12 1
    23   11   37 1
    24   12   13 1
    25   12   38 1
    26   12   39 1
    27   13   18 ar
    28   13   14 ar
    29   14   15 ar
    30   14   40 1
    31   15   16 ar
    32   15   41 1
    33   16   17 ar
    34   16   42 1
    35   17   18 ar
    36   17   43 1
    37   18   44 1
    38   19   26 ar
    39   19   20 1
    40   20   21 2
    41   21   22 1
    42   21   45 1
    43   22   23 1
    44   22   26 1
    45   23   24 1
    46   23   25 1
    47   23   46 1
    48   24   47 1
    49   24   48 1
    50   24   49 1
    51   25   50 1
    52   25   51 1
    53   25   52 1
    54   26   27 ar
@<TRIPOS>Similarity
1.0130
@<TRIPOS>ShapeSim
0.7472
@<TRIPOS>PharmSim
0.2659
# END
# Name:		CC[C@H](CO)NC1=NC(=C2C(=N1)N(C=N2)C(C)C)NCC3=CC=CC=C3
# Created and modified by SHAFTS on Thu Mar 11 04:22:19 2021

# 

@<TRIPOS>MOLECULE
CC[C@H](CO)NC1=NC(=C2C(=N1)N(C=N2)C(C)C)NCC3=CC=CC=C3
   52    54     0
SMALL
USER_CHARGE


@<TRIPOS>ATOM
      1 C1          0.3434  -10.0138    3.4248 C.3       1 <1>        -0.0634
      2 C2          1.0882   -8.7479    3.8535 C.3       1 <1>        -0.0392
      3 C3          0.8863   -7.6562    2.8008 C.3       1 <1>        -0.0060
      4 H4         -0.1803   -7.4994    2.6399 H         1 <1>         0.1347
      5 C5          1.5254   -6.3540    3.2875 C.3       1 <1>        -0.0112
      6 O6          2.8979   -6.5884    3.6093 O.3       1 <1>        -0.4910
      7 N7          1.5144   -8.0683    1.5432 N.pl3     1 <1>        -0.3269
      8 C8          1.0609   -7.5518    0.3406 C.ar      1 <1>         0.0625
      9 N9          0.0597   -6.6811    0.3543 N.ar      1 <1>        -0.3062
     10 C10        -0.4105   -6.1577   -0.7725 C.ar      1 <1>         0.0492
     11 N11        -1.4546   -5.2501   -0.7483 N.pl3     1 <1>        -0.3416
     12 C12        -2.0538   -4.8567    0.5294 C.3       1 <1>        -0.0044
     13 C13        -3.1617   -3.8660    0.2808 C.ar      1 <1>        -0.0866
     14 C14        -2.8846   -2.5120    0.2518 C.ar      1 <1>        -0.0984
     15 C15        -3.9010   -1.6032    0.0238 C.ar      1 <1>        -0.1056
     16 C16        -5.1943   -2.0484   -0.1758 C.ar      1 <1>        -0.1075
     17 C17        -5.4713   -3.4024   -0.1478 C.ar      1 <1>        -0.1056
     18 C18        -4.4542   -4.3115    0.0760 C.ar      1 <1>        -0.0984
     19 C19         0.1758   -6.5453   -1.9896 C.ar      1 <1>         0.0829
     20 N20        -0.0367   -6.2294   -3.2910 N.2       1 <1>        -0.3707
     21 C21         0.8025   -6.8849   -4.0383 C.2       1 <1>         0.0228
     22 N22         1.6078   -7.6648   -3.2605 N.pl3     1 <1>        -0.3164
     23 C23         2.6768   -8.5483   -3.7325 C.3       1 <1>        -0.0098
     24 C24         2.0889   -9.6036   -4.6714 C.3       1 <1>        -0.0388
     25 C25         3.7249   -7.7247   -4.4835 C.3       1 <1>        -0.0388
     26 C26         1.2329   -7.4695   -1.9553 C.ar      1 <1>         0.0467
     27 N27         1.6445   -7.9394   -0.7819 N.ar      1 <1>        -0.3270
     28 H28        -0.7200   -9.7946    3.3282 H         1 <1>         0.0280
     29 H29         0.7323  -10.3571    2.4662 H         1 <1>         0.0351
     30 H30         0.4873  -10.7916    4.1748 H         1 <1>         0.0351
     31 H31         0.6994   -8.4047    4.8122 H         1 <1>         0.0625
     32 H32         2.1516   -8.9672    3.9503 H         1 <1>         0.0625
     33 H33         1.4599   -5.6014    2.5018 H         1 <1>         0.0846
     34 H34         0.9996   -6.0004    4.1742 H         1 <1>         0.0846
     35 H35         3.3671   -5.8042    3.9255 H         1 <1>         0.3214
     36 H36         2.2480   -8.7030    1.5526 H         1 <1>         0.3192
     37 H37        -1.7898   -4.8743   -1.5773 H         1 <1>         0.3212
     38 H38        -2.4590   -5.7377    1.0272 H         1 <1>         0.1205
     39 H39        -1.2928   -4.3997    1.1621 H         1 <1>         0.1205
     40 H40        -1.8740   -2.1642    0.4078 H         1 <1>         0.1177
     41 H41        -3.6845   -0.5453    0.0020 H         1 <1>         0.1128
     42 H42        -5.9884   -1.3383   -0.3533 H         1 <1>         0.1142
     43 H43        -6.4818   -3.7503   -0.3034 H         1 <1>         0.1128
     44 H44        -4.6706   -5.3693    0.0979 H         1 <1>         0.1177
     45 H45         0.8538   -6.8215   -5.1151 H         1 <1>         0.2792
     46 H46         3.1443   -9.0408   -2.8798 H         1 <1>         0.1311
     47 H47         1.6214   -9.1112   -5.5242 H         1 <1>         0.0506
     48 H48         2.8842  -10.2611   -5.0227 H         1 <1>         0.0578
     49 H49         1.3422  -10.1904   -4.1365 H         1 <1>         0.0435
     50 H50         4.1438   -6.9729   -3.8145 H         1 <1>         0.0435
     51 H51         4.5203   -8.3822   -4.8347 H         1 <1>         0.0578
     52 H52         3.2575   -7.2323   -5.3361 H         1 <1>         0.0506
@<TRIPOS>BOND
     1    1    2 1
     2    1   28 1
     3    1   29 1
     4    1   30 1
     5    2    3 1
     6    2   31 1
     7    2   32 1
     8    3    4 1
     9    3    5 1
    10    3    7 1
    11    5    6 1
    12    5   33 1
    13    5   34 1
    14    6   35 1
    15    7    8 1
    16    7   36 1
    17    8   27 ar
    18    8    9 ar
    19    9   10 ar
    20   10   11 1
    21   10   19 ar
    22   11   12 1
    23   11   37 1
    24   12   13 1
    25   12   38 1
    26   12   39 1
    27   13   18 ar
    28   13   14 ar
    29   14   15 ar
    30   14   40 1
    31   15   16 ar
    32   15   41 1
    33   16   17 ar
    34   16   42 1
    35   17   18 ar
    36   17   43 1
    37   18   44 1
    38   19   26 ar
    39   19   20 1
    40   20   21 2
    41   21   22 1
    42   21   45 1
    43   22   23 1
    44   22   26 1
    45   23   24 1
    46   23   25 1
    47   23   46 1
    48   24   47 1
    49   24   48 1
    50   24   49 1
    51   25   50 1
    52   25   51 1
    53   25   52 1
    54   26   27 ar
@<TRIPOS>Similarity
1.0130
@<TRIPOS>ShapeSim
0.7472
@<TRIPOS>PharmSim
0.2659
# END
# Name:		CC(C)N1C2=NC(NC(CC)CO)=NC(NCC3=CC=CC=C3)=C2N=C1[H]
# Created and modified by SHAFTS on Thu Mar 11 04:22:19 2021

# 

@<TRIPOS>MOLECULE
CC(C)N1C2=NC(NC(CC)CO)=NC(NCC3=CC=CC=C3)=C2N=C1[H]
   52    54     0
SMALL
USER_CHARGE


@<TRIPOS>ATOM
      1 C1          0.3434  -10.0138    3.4248 C.3       1 <1>        -0.0634
      2 C2          1.0882   -8.7479    3.8535 C.3       1 <1>        -0.0392
      3 C3          0.8863   -7.6562    2.8008 C.3       1 <1>        -0.0060
      4 H4         -0.1803   -7.4994    2.6399 H         1 <1>         0.1347
      5 C5          1.5254   -6.3540    3.2875 C.3       1 <1>        -0.0112
      6 O6          2.8979   -6.5884    3.6093 O.3       1 <1>        -0.4910
      7 N7          1.5144   -8.0683    1.5432 N.pl3     1 <1>        -0.3269
      8 C8          1.0609   -7.5518    0.3406 C.ar      1 <1>         0.0625
      9 N9          0.0597   -6.6811    0.3543 N.ar      1 <1>        -0.3062
     10 C10        -0.4105   -6.1577   -0.7725 C.ar      1 <1>         0.0492
     11 N11        -1.4546   -5.2501   -0.7483 N.pl3     1 <1>        -0.3416
     12 C12        -2.0538   -4.8567    0.5294 C.3       1 <1>        -0.0044
     13 C13        -3.1617   -3.8660    0.2808 C.ar      1 <1>        -0.0866
     14 C14        -2.8846   -2.5120    0.2518 C.ar      1 <1>        -0.0984
     15 C15        -3.9010   -1.6032    0.0238 C.ar      1 <1>        -0.1056
     16 C16        -5.1943   -2.0484   -0.1758 C.ar      1 <1>        -0.1075
     17 C17        -5.4713   -3.4024   -0.1478 C.ar      1 <1>        -0.1056
     18 C18        -4.4542   -4.3115    0.0760 C.ar      1 <1>        -0.0984
     19 C19         0.1758   -6.5453   -1.9896 C.ar      1 <1>         0.0829
     20 N20        -0.0367   -6.2294   -3.2910 N.2       1 <1>        -0.3707
     21 C21         0.8025   -6.8849   -4.0383 C.2       1 <1>         0.0228
     22 N22         1.6078   -7.6648   -3.2605 N.pl3     1 <1>        -0.3164
     23 C23         2.6768   -8.5483   -3.7325 C.3       1 <1>        -0.0098
     24 C24         2.0889   -9.6036   -4.6714 C.3       1 <1>        -0.0388
     25 C25         3.7249   -7.7247   -4.4835 C.3       1 <1>        -0.0388
     26 C26         1.2329   -7.4695   -1.9553 C.ar      1 <1>         0.0467
     27 N27         1.6445   -7.9394   -0.7819 N.ar      1 <1>        -0.3270
     28 H28        -0.7200   -9.7946    3.3282 H         1 <1>         0.0280
     29 H29         0.7323  -10.3571    2.4662 H         1 <1>         0.0351
     30 H30         0.4873  -10.7916    4.1748 H         1 <1>         0.0351
     31 H31         0.6994   -8.4047    4.8122 H         1 <1>         0.0625
     32 H32         2.1516   -8.9672    3.9503 H         1 <1>         0.0625
     33 H33         1.4599   -5.6014    2.5018 H         1 <1>         0.0846
     34 H34         0.9996   -6.0004    4.1742 H         1 <1>         0.0846
     35 H35         3.3671   -5.8042    3.9255 H         1 <1>         0.3214
     36 H36         2.2480   -8.7030    1.5526 H         1 <1>         0.3192
     37 H37        -1.7898   -4.8743   -1.5773 H         1 <1>         0.3212
     38 H38        -2.4590   -5.7377    1.0272 H         1 <1>         0.1205
     39 H39        -1.2928   -4.3997    1.1621 H         1 <1>         0.1205
     40 H40        -1.8740   -2.1642    0.4078 H         1 <1>         0.1177
     41 H41        -3.6845   -0.5453    0.0020 H         1 <1>         0.1128
     42 H42        -5.9884   -1.3383   -0.3533 H         1 <1>         0.1142
     43 H43        -6.4818   -3.7503   -0.3034 H         1 <1>         0.1128
     44 H44        -4.6706   -5.3693    0.0979 H         1 <1>         0.1177
     45 H45         0.8538   -6.8215   -5.1151 H         1 <1>         0.2792
     46 H46         3.1443   -9.0408   -2.8798 H         1 <1>         0.1311
     47 H47         1.6214   -9.1112   -5.5242 H         1 <1>         0.0506
     48 H48         2.8842  -10.2611   -5.0227 H         1 <1>         0.0578
     49 H49         1.3422  -10.1904   -4.1365 H         1 <1>         0.0435
     50 H50         4.1438   -6.9729   -3.8145 H         1 <1>         0.0435
     51 H51         4.5203   -8.3822   -4.8347 H         1 <1>         0.0578
     52 H52         3.2575   -7.2323   -5.3361 H         1 <1>         0.0506
@<TRIPOS>BOND
     1    1    2 1
     2    1   28 1
     3    1   29 1
     4    1   30 1
     5    2    3 1
     6    2   31 1
     7    2   32 1
     8    3    4 1
     9    3    5 1
    10    3    7 1
    11    5    6 1
    12    5   33 1
    13    5   34 1
    14    6   35 1
    15    7    8 1
    16    7   36 1
    17    8   27 ar
    18    8    9 ar
    19    9   10 ar
    20   10   11 1
    21   10   19 ar
    22   11   12 1
    23   11   37 1
    24   12   13 1
    25   12   38 1
    26   12   39 1
    27   13   18 ar
    28   13   14 ar
    29   14   15 ar
    30   14   40 1
    31   15   16 ar
    32   15   41 1
    33   16   17 ar
    34   16   42 1
    35   17   18 ar
    36   17   43 1
    37   18   44 1
    38   19   26 ar
    39   19   20 1
    40   20   21 2
    41   21   22 1
    42   21   45 1
    43   22   23 1
    44   22   26 1
    45   23   24 1
    46   23   25 1
    47   23   46 1
    48   24   47 1
    49   24   48 1
    50   24   49 1
    51   25   50 1
    52   25   51 1
    53   25   52 1
    54   26   27 ar
@<TRIPOS>Similarity
1.0130
@<TRIPOS>ShapeSim
0.7472
@<TRIPOS>PharmSim
0.2659
# END
# Name:		OCC(CC)NC1=NC(N(C(C)C)C=N2)=C2C(NCC3=CC=CC=C3)=N1
# Created and modified by SHAFTS on Thu Mar 11 04:22:19 2021

# 

@<TRIPOS>MOLECULE
OCC(CC)NC1=NC(N(C(C)C)C=N2)=C2C(NCC3=CC=CC=C3)=N1
   52    54     0
SMALL
USER_CHARGE


@<TRIPOS>ATOM
      1 C1          0.3434  -10.0138    3.4248 C.3       1 <1>        -0.0634
      2 C2          1.0882   -8.7479    3.8535 C.3       1 <1>        -0.0392
      3 C3          0.8863   -7.6562    2.8008 C.3       1 <1>        -0.0060
      4 H4         -0.1803   -7.4994    2.6399 H         1 <1>         0.1347
      5 C5          1.5254   -6.3540    3.2875 C.3       1 <1>        -0.0112
      6 O6          2.8979   -6.5884    3.6093 O.3       1 <1>        -0.4910
      7 N7          1.5144   -8.0683    1.5432 N.pl3     1 <1>        -0.3269
      8 C8          1.0609   -7.5518    0.3406 C.ar      1 <1>         0.0625
      9 N9          0.0597   -6.6811    0.3543 N.ar      1 <1>        -0.3062
     10 C10        -0.4105   -6.1577   -0.7725 C.ar      1 <1>         0.0492
     11 N11        -1.4546   -5.2501   -0.7483 N.pl3     1 <1>        -0.3416
     12 C12        -2.0538   -4.8567    0.5294 C.3       1 <1>        -0.0044
     13 C13        -3.1617   -3.8660    0.2808 C.ar      1 <1>        -0.0866
     14 C14        -2.8846   -2.5120    0.2518 C.ar      1 <1>        -0.0984
     15 C15        -3.9010   -1.6032    0.0238 C.ar      1 <1>        -0.1056
     16 C16        -5.1943   -2.0484   -0.1758 C.ar      1 <1>        -0.1075
     17 C17        -5.4713   -3.4024   -0.1478 C.ar      1 <1>        -0.1056
     18 C18        -4.4542   -4.3115    0.0760 C.ar      1 <1>        -0.0984
     19 C19         0.1758   -6.5453   -1.9896 C.ar      1 <1>         0.0829
     20 N20        -0.0367   -6.2294   -3.2910 N.2       1 <1>        -0.3707
     21 C21         0.8025   -6.8849   -4.0383 C.2       1 <1>         0.0228
     22 N22         1.6078   -7.6648   -3.2605 N.pl3     1 <1>        -0.3164
     23 C23         2.6768   -8.5483   -3.7325 C.3       1 <1>        -0.0098
     24 C24         2.0889   -9.6036   -4.6714 C.3       1 <1>        -0.0388
     25 C25         3.7249   -7.7247   -4.4835 C.3       1 <1>        -0.0388
     26 C26         1.2329   -7.4695   -1.9553 C.ar      1 <1>         0.0467
     27 N27         1.6445   -7.9394   -0.7819 N.ar      1 <1>        -0.3270
     28 H28        -0.7200   -9.7946    3.3282 H         1 <1>         0.0280
     29 H29         0.7323  -10.3571    2.4662 H         1 <1>         0.0351
     30 H30         0.4873  -10.7916    4.1748 H         1 <1>         0.0351
     31 H31         0.6994   -8.4047    4.8122 H         1 <1>         0.0625
     32 H32         2.1516   -8.9672    3.9503 H         1 <1>         0.0625
     33 H33         1.4599   -5.6014    2.5018 H         1 <1>         0.0846
     34 H34         0.9996   -6.0004    4.1742 H         1 <1>         0.0846
     35 H35         3.3671   -5.8042    3.9255 H         1 <1>         0.3214
     36 H36         2.2480   -8.7030    1.5526 H         1 <1>         0.3192
     37 H37        -1.7898   -4.8743   -1.5773 H         1 <1>         0.3212
     38 H38        -2.4590   -5.7377    1.0272 H         1 <1>         0.1205
     39 H39        -1.2928   -4.3997    1.1621 H         1 <1>         0.1205
     40 H40        -1.8740   -2.1642    0.4078 H         1 <1>         0.1177
     41 H41        -3.6845   -0.5453    0.0020 H         1 <1>         0.1128
     42 H42        -5.9884   -1.3383   -0.3533 H         1 <1>         0.1142
     43 H43        -6.4818   -3.7503   -0.3034 H         1 <1>         0.1128
     44 H44        -4.6706   -5.3693    0.0979 H         1 <1>         0.1177
     45 H45         0.8538   -6.8215   -5.1151 H         1 <1>         0.2792
     46 H46         3.1443   -9.0408   -2.8798 H         1 <1>         0.1311
     47 H47         1.6214   -9.1112   -5.5242 H         1 <1>         0.0506
     48 H48         2.8842  -10.2611   -5.0227 H         1 <1>         0.0578
     49 H49         1.3422  -10.1904   -4.1365 H         1 <1>         0.0435
     50 H50         4.1438   -6.9729   -3.8145 H         1 <1>         0.0435
     51 H51         4.5203   -8.3822   -4.8347 H         1 <1>         0.0578
     52 H52         3.2575   -7.2323   -5.3361 H         1 <1>         0.0506
@<TRIPOS>BOND
     1    1    2 1
     2    1   28 1
     3    1   29 1
     4    1   30 1
     5    2    3 1
     6    2   31 1
     7    2   32 1
     8    3    4 1
     9    3    5 1
    10    3    7 1
    11    5    6 1
    12    5   33 1
    13    5   34 1
    14    6   35 1
    15    7    8 1
    16    7   36 1
    17    8   27 ar
    18    8    9 ar
    19    9   10 ar
    20   10   11 1
    21   10   19 ar
    22   11   12 1
    23   11   37 1
    24   12   13 1
    25   12   38 1
    26   12   39 1
    27   13   18 ar
    28   13   14 ar
    29   14   15 ar
    30   14   40 1
    31   15   16 ar
    32   15   41 1
    33   16   17 ar
    34   16   42 1
    35   17   18 ar
    36   17   43 1
    37   18   44 1
    38   19   26 ar
    39   19   20 1
    40   20   21 2
    41   21   22 1
    42   21   45 1
    43   22   23 1
    44   22   26 1
    45   23   24 1
    46   23   25 1
    47   23   46 1
    48   24   47 1
    49   24   48 1
    50   24   49 1
    51   25   50 1
    52   25   51 1
    53   25   52 1
    54   26   27 ar
@<TRIPOS>Similarity
1.0130
@<TRIPOS>ShapeSim
0.7472
@<TRIPOS>PharmSim
0.2659
# END
# Name:		CCC(CO)NC1=NC(=C2C(=N1)N(C=N2)C(C)C)NCC3=CC=CC=C3
# Created and modified by SHAFTS on Thu Mar 11 04:22:19 2021

# 

@<TRIPOS>MOLECULE
CCC(CO)NC1=NC(=C2C(=N1)N(C=N2)C(C)C)NCC3=CC=CC=C3
   52    54     0
SMALL
USER_CHARGE


@<TRIPOS>ATOM
      1 C1          0.3434  -10.0138    3.4248 C.3       1 <1>        -0.0634
      2 C2          1.0882   -8.7479    3.8535 C.3       1 <1>        -0.0392
      3 C3          0.8863   -7.6562    2.8008 C.3       1 <1>        -0.0060
      4 H4         -0.1803   -7.4994    2.6399 H         1 <1>         0.1347
      5 C5          1.5254   -6.3540    3.2875 C.3       1 <1>        -0.0112
      6 O6          2.8979   -6.5884    3.6093 O.3       1 <1>        -0.4910
      7 N7          1.5144   -8.0683    1.5432 N.pl3     1 <1>        -0.3269
      8 C8          1.0609   -7.5518    0.3406 C.ar      1 <1>         0.0625
      9 N9          0.0597   -6.6811    0.3543 N.ar      1 <1>        -0.3062
     10 C10        -0.4105   -6.1577   -0.7725 C.ar      1 <1>         0.0492
     11 N11        -1.4546   -5.2501   -0.7483 N.pl3     1 <1>        -0.3416
     12 C12        -2.0538   -4.8567    0.5294 C.3       1 <1>        -0.0044
     13 C13        -3.1617   -3.8660    0.2808 C.ar      1 <1>        -0.0866
     14 C14        -2.8846   -2.5120    0.2518 C.ar      1 <1>        -0.0984
     15 C15        -3.9010   -1.6032    0.0238 C.ar      1 <1>        -0.1056
     16 C16        -5.1943   -2.0484   -0.1758 C.ar      1 <1>        -0.1075
     17 C17        -5.4713   -3.4024   -0.1478 C.ar      1 <1>        -0.1056
     18 C18        -4.4542   -4.3115    0.0760 C.ar      1 <1>        -0.0984
     19 C19         0.1758   -6.5453   -1.9896 C.ar      1 <1>         0.0829
     20 N20        -0.0367   -6.2294   -3.2910 N.2       1 <1>        -0.3707
     21 C21         0.8025   -6.8849   -4.0383 C.2       1 <1>         0.0228
     22 N22         1.6078   -7.6648   -3.2605 N.pl3     1 <1>        -0.3164
     23 C23         2.6768   -8.5483   -3.7325 C.3       1 <1>        -0.0098
     24 C24         2.0889   -9.6036   -4.6714 C.3       1 <1>        -0.0388
     25 C25         3.7249   -7.7247   -4.4835 C.3       1 <1>        -0.0388
     26 C26         1.2329   -7.4695   -1.9553 C.ar      1 <1>         0.0467
     27 N27         1.6445   -7.9394   -0.7819 N.ar      1 <1>        -0.3270
     28 H28        -0.7200   -9.7946    3.3282 H         1 <1>         0.0280
     29 H29         0.7323  -10.3571    2.4662 H         1 <1>         0.0351
     30 H30         0.4873  -10.7916    4.1748 H         1 <1>         0.0351
     31 H31         0.6994   -8.4047    4.8122 H         1 <1>         0.0625
     32 H32         2.1516   -8.9672    3.9503 H         1 <1>         0.0625
     33 H33         1.4599   -5.6014    2.5018 H         1 <1>         0.0846
     34 H34         0.9996   -6.0004    4.1742 H         1 <1>         0.0846
     35 H35         3.3671   -5.8042    3.9255 H         1 <1>         0.3214
     36 H36         2.2480   -8.7030    1.5526 H         1 <1>         0.3192
     37 H37        -1.7898   -4.8743   -1.5773 H         1 <1>         0.3212
     38 H38        -2.4590   -5.7377    1.0272 H         1 <1>         0.1205
     39 H39        -1.2928   -4.3997    1.1621 H         1 <1>         0.1205
     40 H40        -1.8740   -2.1642    0.4078 H         1 <1>         0.1177
     41 H41        -3.6845   -0.5453    0.0020 H         1 <1>         0.1128
     42 H42        -5.9884   -1.3383   -0.3533 H         1 <1>         0.1142
     43 H43        -6.4818   -3.7503   -0.3034 H         1 <1>         0.1128
     44 H44        -4.6706   -5.3693    0.0979 H         1 <1>         0.1177
     45 H45         0.8538   -6.8215   -5.1151 H         1 <1>         0.2792
     46 H46         3.1443   -9.0408   -2.8798 H         1 <1>         0.1311
     47 H47         1.6214   -9.1112   -5.5242 H         1 <1>         0.0506
     48 H48         2.8842  -10.2611   -5.0227 H         1 <1>         0.0578
     49 H49         1.3422  -10.1904   -4.1365 H         1 <1>         0.0435
     50 H50         4.1438   -6.9729   -3.8145 H         1 <1>         0.0435
     51 H51         4.5203   -8.3822   -4.8347 H         1 <1>         0.0578
     52 H52         3.2575   -7.2323   -5.3361 H         1 <1>         0.0506
@<TRIPOS>BOND
     1    1    2 1
     2    1   28 1
     3    1   29 1
     4    1   30 1
     5    2    3 1
     6    2   31 1
     7    2   32 1
     8    3    4 1
     9    3    5 1
    10    3    7 1
    11    5    6 1
    12    5   33 1
    13    5   34 1
    14    6   35 1
    15    7    8 1
    16    7   36 1
    17    8   27 ar
    18    8    9 ar
    19    9   10 ar
    20   10   11 1
    21   10   19 ar
    22   11   12 1
    23   11   37 1
    24   12   13 1
    25   12   38 1
    26   12   39 1
    27   13   18 ar
    28   13   14 ar
    29   14   15 ar
    30   14   40 1
    31   15   16 ar
    32   15   41 1
    33   16   17 ar
    34   16   42 1
    35   17   18 ar
    36   17   43 1
    37   18   44 1
    38   19   26 ar
    39   19   20 1
    40   20   21 2
    41   21   22 1
    42   21   45 1
    43   22   23 1
    44   22   26 1
    45   23   24 1
    46   23   25 1
    47   23   46 1
    48   24   47 1
    49   24   48 1
    50   24   49 1
    51   25   50 1
    52   25   51 1
    53   25   52 1
    54   26   27 ar
@<TRIPOS>Similarity
1.0130
@<TRIPOS>ShapeSim
0.7472
@<TRIPOS>PharmSim
0.2659
# END
# Name:		C1=C(C(=CC(=C1O)O)O)CC(C(=O)O)N
# Created and modified by SHAFTS on Thu Mar 11 04:22:19 2021

# 

@<TRIPOS>MOLECULE
C1=C(C(=CC(=C1O)O)O)CC(C(=O)O)N
   26    26     0
SMALL
USER_CHARGE


@<TRIPOS>ATOM
      1 N1         -0.7074   -9.1932   -0.1560 N.4       1 <1>        -0.6200
      2 H2         -1.0940  -10.1183   -0.0425 H         1 <1>         0.4400
      3 H3         -1.0850   -8.7711   -0.9911 H         1 <1>         0.4000
      4 H4         -0.9474   -8.6278    0.6446 H         1 <1>         0.4300
      5 C5          0.7543   -9.2839   -0.2711 C.3       1 <1>        -0.0400
      6 H6          1.0134   -9.8946   -1.1359 H         1 <1>         0.1400
      7 C7          1.3403   -7.8811   -0.4433 C.3       1 <1>        -0.0800
      8 C8          0.8728   -7.2985   -1.7520 C.ar      1 <1>        -0.1200
      9 C9          1.6626   -7.4146   -2.8805 C.ar      1 <1>        -0.1000
     10 C10         1.2349   -6.8794   -4.0846 C.ar      1 <1>         0.0900
     11 O11         2.0130   -6.9940   -5.1951 O.3       1 <1>        -0.4800
     12 C12         0.0093   -6.2250   -4.1580 C.ar      1 <1>         0.1000
     13 O13        -0.4122   -5.6994   -5.3392 O.3       1 <1>        -0.4800
     14 C14        -0.7812   -6.1100   -3.0262 C.ar      1 <1>        -0.1400
     15 C15        -0.3520   -6.6516   -1.8240 C.ar      1 <1>         0.0800
     16 O16        -1.1276   -6.5395   -0.7127 O.3       1 <1>        -0.4800
     17 C17         1.3181   -9.9144    0.9762 C.2       1 <1>         0.4900
     18 O18         2.4898  -10.2495    1.0136 O.co2     1 <1>        -0.5000
     19 O19         0.6027  -10.0891    1.9478 O.co2     1 <1>        -0.5000
     20 H20         1.0075   -7.2451    0.3771 H         1 <1>         0.1000
     21 H21         2.4287   -7.9391   -0.4395 H         1 <1>         0.1200
     22 H22         2.6139   -7.9226   -2.8234 H         1 <1>         0.1500
     23 H23         1.8415   -7.7912   -5.7149 H         1 <1>         0.3900
     24 H24        -0.9303   -6.3116   -5.8796 H         1 <1>         0.3900
     25 H25        -1.7330   -5.6023   -3.0810 H         1 <1>         0.1500
     26 H26        -1.7504   -7.2694   -0.5925 H         1 <1>         0.3700
@<TRIPOS>BOND
     1    1    2 1
     2    1    3 1
     3    1    4 1
     4    1    5 1
     5    5    6 1
     6    5    7 1
     7    5   17 1
     8    7    8 1
     9    7   20 1
    10    7   21 1
    11    8   15 ar
    12    8    9 ar
    13    9   10 ar
    14    9   22 1
    15   10   11 1
    16   10   12 ar
    17   11   23 1
    18   12   13 1
    19   12   14 ar
    20   13   24 1
    21   14   15 ar
    22   14   25 1
    23   15   16 1
    24   16   26 1
    25   17   18 ar
    26   17   19 ar
@<TRIPOS>Similarity
1.0128
@<TRIPOS>ShapeSim
0.5737
@<TRIPOS>PharmSim
0.4391
# END
# Name:		O=C(O)C1=C3C(C=CC=C3)=NC(C2=CC=CC(F)=C2)=C1
# Created and modified by SHAFTS on Thu Mar 11 04:22:19 2021

# 

@<TRIPOS>MOLECULE
O=C(O)C1=C3C(C=CC=C3)=NC(C2=CC=CC(F)=C2)=C1
   29    31     0
SMALL
USER_CHARGE


@<TRIPOS>ATOM
      1 O1          1.6098   -8.5509    1.5511 O.co2     1 <1>        -0.5000
      2 C2          1.6145   -8.4139    0.3360 C.2       1 <1>         0.5300
      3 O3          2.4029   -9.0510   -0.3481 O.co2     1 <1>        -0.5000
      4 C4          0.6645   -7.4836   -0.3057 C.ar      1 <1>        -0.0600
      5 C5          0.7239   -7.2043   -1.7410 C.ar      1 <1>        -0.0800
      6 C6          1.6818   -7.8059   -2.5640 C.ar      1 <1>        -0.0700
      7 C7          1.7016   -7.5179   -3.8965 C.ar      1 <1>        -0.1500
      8 C8          0.7795   -6.6316   -4.4492 C.ar      1 <1>        -0.1000
      9 C9         -0.1655   -6.0288   -3.6777 C.ar      1 <1>        -0.1100
     10 C10        -0.2173   -6.3013   -2.2976 C.ar      1 <1>         0.1200
     11 N11        -1.1322   -5.7263   -1.5166 N.ar      1 <1>        -0.4800
     12 C12        -1.2041   -5.9628   -0.2240 C.ar      1 <1>         0.1900
     13 C13        -2.2534   -5.2802    0.5710 C.ar      1 <1>        -0.0100
     14 C14        -2.3499   -5.5070    1.9429 C.ar      1 <1>        -0.1100
     15 C15        -3.3282   -4.8696    2.6790 C.ar      1 <1>        -0.0900
     16 C16        -4.2130   -4.0068    2.0586 C.ar      1 <1>        -0.1500
     17 C17        -4.1228   -3.7767    0.6951 C.ar      1 <1>         0.0900
     18 F18        -4.9898   -2.9324    0.0945 F         1 <1>        -0.1400
     19 C19        -3.1431   -4.4052   -0.0501 C.ar      1 <1>        -0.1200
     20 C20        -0.3260   -6.8424    0.4274 C.ar      1 <1>        -0.1500
     21 H21         2.4017   -8.4942   -2.1462 H         1 <1>         0.1700
     22 H22         2.4415   -7.9823   -4.5315 H         1 <1>         0.1200
     23 H23         0.8156   -6.4191   -5.5075 H         1 <1>         0.1200
     24 H24        -0.8725   -5.3440   -4.1222 H         1 <1>         0.1300
     25 H25        -1.6602   -6.1810    2.4292 H         1 <1>         0.1400
     26 H26        -3.4029   -5.0452    3.7420 H         1 <1>         0.1400
     27 H27        -4.9772   -3.5110    2.6386 H         1 <1>         0.1300
     28 H28        -3.0725   -4.2255   -1.1128 H         1 <1>         0.1500
     29 H29        -0.4142   -7.0130    1.4902 H         1 <1>         0.1500
@<TRIPOS>BOND
     1    1    2 ar
     2    2    3 ar
     3    2    4 1
     4    4   20 ar
     5    4    5 ar
     6    5   10 ar
     7    5    6 ar
     8    6    7 ar
     9    6   21 1
    10    7    8 ar
    11    7   22 1
    12    8    9 ar
    13    8   23 1
    14    9   10 ar
    15    9   24 1
    16   10   11 ar
    17   11   12 ar
    18   12   13 1
    19   12   20 ar
    20   13   19 ar
    21   13   14 ar
    22   14   15 ar
    23   14   25 1
    24   15   16 ar
    25   15   26 1
    26   16   17 ar
    27   16   27 1
    28   17   18 1
    29   17   19 ar
    30   19   28 1
    31   20   29 1
@<TRIPOS>Similarity
1.0127
@<TRIPOS>ShapeSim
0.7255
@<TRIPOS>PharmSim
0.2872
# END
# Name:		C1=CC=C(C=C1)C2=CC(=O)C3=C(C=C(C=C3O2)O)O
# Created and modified by SHAFTS on Thu Mar 11 04:22:19 2021

# 

@<TRIPOS>MOLECULE
C1=CC=C(C=C1)C2=CC(=O)C3=C(C=C(C=C3O2)O)O
   28    30     0
SMALL
USER_CHARGE


@<TRIPOS>ATOM
      1 O1          0.3311   -6.9638    0.9245 O.2       1 <1>        -0.4955
      2 C2         -0.2504   -6.3717    0.0300 C.2       1 <1>         0.0597
      3 C3         -1.3118   -5.4761    0.3087 C.2       1 <1>         0.0128
      4 C4         -1.9341   -4.8352   -0.7154 C.2       1 <1>         0.0471
      5 C5         -3.0383   -3.9050   -0.4044 C.ar      1 <1>        -0.0277
      6 C6         -3.4231   -3.6914    0.9210 C.ar      1 <1>        -0.0788
      7 C7         -4.4552   -2.8212    1.2042 C.ar      1 <1>        -0.0995
      8 C8         -5.1090   -2.1611    0.1789 C.ar      1 <1>        -0.1053
      9 C9         -4.7332   -2.3685   -1.1366 C.ar      1 <1>        -0.0976
     10 C10        -3.6984   -3.2308   -1.4338 C.ar      1 <1>        -0.0751
     11 O11        -1.5838   -5.0147   -1.9986 O.3       1 <1>        -0.3427
     12 C12        -0.5857   -5.8468   -2.3640 C.ar      1 <1>         0.0276
     13 C13        -0.2495   -6.0081   -3.6988 C.ar      1 <1>        -0.0296
     14 C14         0.7788   -6.8667   -4.0567 C.ar      1 <1>        -0.0633
     15 O15         1.1023   -7.0189   -5.3662 O.3       1 <1>        -0.5675
     16 C16         1.4823   -7.5728   -3.0872 C.ar      1 <1>        -0.0359
     17 C17         1.1615   -7.4250   -1.7503 C.ar      1 <1>        -0.0245
     18 O18         1.8468   -8.1133   -0.8026 O.3       1 <1>        -0.4308
     19 C19         0.1277   -6.5553   -1.3813 C.ar      1 <1>         0.0344
     20 H20        -1.6246   -5.3039    1.3279 H         1 <1>         0.1277
     21 H21        -2.9141   -4.2064    1.7222 H         1 <1>         0.1307
     22 H22        -4.7539   -2.6550    2.2287 H         1 <1>         0.1211
     23 H23        -5.9167   -1.4812    0.4062 H         1 <1>         0.1143
     24 H24        -5.2483   -1.8505   -1.9322 H         1 <1>         0.1215
     25 H25        -3.4060   -3.3917   -2.4609 H         1 <1>         0.1408
     26 H26        -0.7891   -5.4652   -4.4607 H         1 <1>         0.1024
     27 H27         2.2809   -8.2387   -3.3791 H         1 <1>         0.1029
     28 H28         2.6233   -7.6478   -0.4627 H         1 <1>         0.3510
@<TRIPOS>BOND
     1    1    2 2
     2    2   19 1
     3    2    3 1
     4    3    4 2
     5    3   20 1
     6    4    5 1
     7    4   11 1
     8    5   10 ar
     9    5    6 ar
    10    6    7 ar
    11    6   21 1
    12    7    8 ar
    13    7   22 1
    14    8    9 ar
    15    8   23 1
    16    9   10 ar
    17    9   24 1
    18   10   25 1
    19   11   12 1
    20   12   19 ar
    21   12   13 ar
    22   13   14 ar
    23   13   26 1
    24   14   15 1
    25   14   16 ar
    26   16   17 ar
    27   16   27 1
    28   17   18 1
    29   17   19 ar
    30   18   28 1
@<TRIPOS>Similarity
1.0115
@<TRIPOS>ShapeSim
0.7493
@<TRIPOS>PharmSim
0.2622
# END
# Name:		C1=CC=C(C=C1)C2=CC(=O)C3=C(C=C(C=C3O2)O)O
# Created and modified by SHAFTS on Thu Mar 11 04:22:19 2021

# 

@<TRIPOS>MOLECULE
C1=CC=C(C=C1)C2=CC(=O)C3=C(C=C(C=C3O2)O)O
   28    30     0
SMALL
USER_CHARGE


@<TRIPOS>ATOM
      1 O1          0.3311   -6.9638    0.9245 O.2       1 <1>        -0.4955
      2 C2         -0.2504   -6.3717    0.0300 C.2       1 <1>         0.0597
      3 C3         -1.3118   -5.4761    0.3087 C.2       1 <1>         0.0128
      4 C4         -1.9341   -4.8352   -0.7154 C.2       1 <1>         0.0471
      5 C5         -3.0383   -3.9050   -0.4044 C.ar      1 <1>        -0.0277
      6 C6         -3.4231   -3.6914    0.9210 C.ar      1 <1>        -0.0788
      7 C7         -4.4552   -2.8212    1.2042 C.ar      1 <1>        -0.0995
      8 C8         -5.1090   -2.1611    0.1789 C.ar      1 <1>        -0.1053
      9 C9         -4.7332   -2.3685   -1.1366 C.ar      1 <1>        -0.0976
     10 C10        -3.6984   -3.2308   -1.4338 C.ar      1 <1>        -0.0751
     11 O11        -1.5838   -5.0147   -1.9986 O.3       1 <1>        -0.3427
     12 C12        -0.5857   -5.8468   -2.3640 C.ar      1 <1>         0.0276
     13 C13        -0.2495   -6.0081   -3.6988 C.ar      1 <1>        -0.0296
     14 C14         0.7788   -6.8667   -4.0567 C.ar      1 <1>        -0.0633
     15 O15         1.1023   -7.0189   -5.3662 O.3       1 <1>        -0.5675
     16 C16         1.4823   -7.5728   -3.0872 C.ar      1 <1>        -0.0359
     17 C17         1.1615   -7.4250   -1.7503 C.ar      1 <1>        -0.0245
     18 O18         1.8468   -8.1133   -0.8026 O.3       1 <1>        -0.4308
     19 C19         0.1277   -6.5553   -1.3813 C.ar      1 <1>         0.0344
     20 H20        -1.6246   -5.3039    1.3279 H         1 <1>         0.1277
     21 H21        -2.9141   -4.2064    1.7222 H         1 <1>         0.1307
     22 H22        -4.7539   -2.6550    2.2287 H         1 <1>         0.1211
     23 H23        -5.9167   -1.4812    0.4062 H         1 <1>         0.1143
     24 H24        -5.2483   -1.8505   -1.9322 H         1 <1>         0.1215
     25 H25        -3.4060   -3.3917   -2.4609 H         1 <1>         0.1408
     26 H26        -0.7891   -5.4652   -4.4607 H         1 <1>         0.1024
     27 H27         2.2809   -8.2387   -3.3791 H         1 <1>         0.1029
     28 H28         2.6233   -7.6478   -0.4627 H         1 <1>         0.3510
@<TRIPOS>BOND
     1    1    2 2
     2    2   19 1
     3    2    3 1
     4    3    4 2
     5    3   20 1
     6    4    5 1
     7    4   11 1
     8    5   10 ar
     9    5    6 ar
    10    6    7 ar
    11    6   21 1
    12    7    8 ar
    13    7   22 1
    14    8    9 ar
    15    8   23 1
    16    9   10 ar
    17    9   24 1
    18   10   25 1
    19   11   12 1
    20   12   19 ar
    21   12   13 ar
    22   13   14 ar
    23   13   26 1
    24   14   15 1
    25   14   16 ar
    26   16   17 ar
    27   16   27 1
    28   17   18 1
    29   17   19 ar
    30   18   28 1
@<TRIPOS>Similarity
1.0115
@<TRIPOS>ShapeSim
0.7493
@<TRIPOS>PharmSim
0.2622
# END
# Name:		O=C1C=C(OC2=CC(O)=CC(O)=C21)C3=CC=CC=C3
# Created and modified by SHAFTS on Thu Mar 11 04:22:19 2021

# 

@<TRIPOS>MOLECULE
O=C1C=C(OC2=CC(O)=CC(O)=C21)C3=CC=CC=C3
   28    30     0
SMALL
USER_CHARGE


@<TRIPOS>ATOM
      1 O1          0.3311   -6.9638    0.9245 O.2       1 <1>        -0.4955
      2 C2         -0.2504   -6.3717    0.0300 C.2       1 <1>         0.0597
      3 C3         -1.3118   -5.4761    0.3087 C.2       1 <1>         0.0128
      4 C4         -1.9341   -4.8352   -0.7154 C.2       1 <1>         0.0471
      5 C5         -3.0383   -3.9050   -0.4044 C.ar      1 <1>        -0.0277
      6 C6         -3.4231   -3.6914    0.9210 C.ar      1 <1>        -0.0788
      7 C7         -4.4552   -2.8212    1.2042 C.ar      1 <1>        -0.0995
      8 C8         -5.1090   -2.1611    0.1789 C.ar      1 <1>        -0.1053
      9 C9         -4.7332   -2.3685   -1.1366 C.ar      1 <1>        -0.0976
     10 C10        -3.6984   -3.2308   -1.4338 C.ar      1 <1>        -0.0751
     11 O11        -1.5838   -5.0147   -1.9986 O.3       1 <1>        -0.3427
     12 C12        -0.5857   -5.8468   -2.3640 C.ar      1 <1>         0.0276
     13 C13        -0.2495   -6.0081   -3.6988 C.ar      1 <1>        -0.0296
     14 C14         0.7788   -6.8667   -4.0567 C.ar      1 <1>        -0.0633
     15 O15         1.1023   -7.0189   -5.3662 O.3       1 <1>        -0.5675
     16 C16         1.4823   -7.5728   -3.0872 C.ar      1 <1>        -0.0359
     17 C17         1.1615   -7.4250   -1.7503 C.ar      1 <1>        -0.0245
     18 O18         1.8468   -8.1133   -0.8026 O.3       1 <1>        -0.4308
     19 C19         0.1277   -6.5553   -1.3813 C.ar      1 <1>         0.0344
     20 H20        -1.6246   -5.3039    1.3279 H         1 <1>         0.1277
     21 H21        -2.9141   -4.2064    1.7222 H         1 <1>         0.1307
     22 H22        -4.7539   -2.6550    2.2287 H         1 <1>         0.1211
     23 H23        -5.9167   -1.4812    0.4062 H         1 <1>         0.1143
     24 H24        -5.2483   -1.8505   -1.9322 H         1 <1>         0.1215
     25 H25        -3.4060   -3.3917   -2.4609 H         1 <1>         0.1408
     26 H26        -0.7891   -5.4652   -4.4607 H         1 <1>         0.1024
     27 H27         2.2809   -8.2387   -3.3791 H         1 <1>         0.1029
     28 H28         2.6233   -7.6478   -0.4627 H         1 <1>         0.3510
@<TRIPOS>BOND
     1    1    2 2
     2    2   19 1
     3    2    3 1
     4    3    4 2
     5    3   20 1
     6    4    5 1
     7    4   11 1
     8    5   10 ar
     9    5    6 ar
    10    6    7 ar
    11    6   21 1
    12    7    8 ar
    13    7   22 1
    14    8    9 ar
    15    8   23 1
    16    9   10 ar
    17    9   24 1
    18   10   25 1
    19   11   12 1
    20   12   19 ar
    21   12   13 ar
    22   13   14 ar
    23   13   26 1
    24   14   15 1
    25   14   16 ar
    26   16   17 ar
    27   16   27 1
    28   17   18 1
    29   17   19 ar
    30   18   28 1
@<TRIPOS>Similarity
1.0115
@<TRIPOS>ShapeSim
0.7493
@<TRIPOS>PharmSim
0.2622
# END
# Name:		CC1=CC=C(C=C1)NC2=CC(=O)C3=C(C2=O)N=C(S3)C
# Created and modified by SHAFTS on Thu Mar 11 04:22:19 2021

# 

@<TRIPOS>MOLECULE
CC1=CC=C(C=C1)NC2=CC(=O)C3=C(C2=O)N=C(S3)C
   32    34     0
SMALL
USER_CHARGE


@<TRIPOS>ATOM
      1 C1         -6.7381   -3.3374    0.2349 C.3       1 <1>         0.0155
      2 C2         -5.2504   -3.1448    0.0914 C.2       1 <1>         0.0431
      3 N3         -4.4068   -4.0963   -0.0878 N.2       1 <1>        -0.3637
      4 C4         -3.1183   -3.7784   -0.1981 C.2       1 <1>         0.0936
      5 C5         -2.9020   -2.4182   -0.0959 C.2       1 <1>         0.1211
      6 S6         -4.4611   -1.6315    0.1382 S.3       1 <1>        -0.0121
      7 C7         -1.5357   -1.8681   -0.1931 C.2       1 <1>         0.1293
      8 O8         -1.3588   -0.6675   -0.1010 O.2       1 <1>        -0.4330
      9 C9         -0.3933   -2.7579   -0.3991 C.2       1 <1>         0.0555
     10 C10        -0.5822   -4.0937   -0.5020 C.2       1 <1>         0.0726
     11 N11         0.4991   -4.9243   -0.6959 N.pl3     1 <1>        -0.3540
     12 C12         0.5184   -5.8028   -1.7793 C.ar      1 <1>        -0.0684
     13 C13        -0.4673   -5.7258   -2.7564 C.ar      1 <1>        -0.0745
     14 C14        -0.4447   -6.5967   -3.8276 C.ar      1 <1>        -0.1001
     15 C15         0.5569   -7.5452   -3.9288 C.ar      1 <1>        -0.1172
     16 C16         0.5778   -8.4942   -5.0994 C.3       1 <1>        -0.0468
     17 C17         1.5396   -7.6246   -2.9588 C.ar      1 <1>        -0.0978
     18 C18         1.5266   -6.7537   -1.8875 C.ar      1 <1>        -0.0708
     19 C19        -1.9445   -4.6691   -0.4076 C.2       1 <1>         0.1961
     20 O20        -2.1034   -5.8691   -0.5011 O.2       1 <1>        -0.3824
     21 H21        -7.2184   -2.3685    0.3714 H         1 <1>         0.0888
     22 H22        -7.1309   -3.8143   -0.6631 H         1 <1>         0.0960
     23 H23        -6.9410   -3.9687    1.1000 H         1 <1>         0.0960
     24 H24         0.6033   -2.3477   -0.4696 H         1 <1>         0.1765
     25 H25         1.2473   -4.8984   -0.0791 H         1 <1>         0.3173
     26 H26        -1.2501   -4.9859   -2.6777 H         1 <1>         0.1083
     27 H27        -1.2102   -6.5374   -4.5871 H         1 <1>         0.1208
     28 H28         1.1596   -8.0574   -5.9110 H         1 <1>         0.0553
     29 H29         1.0307   -9.4375   -4.7942 H         1 <1>         0.0553
     30 H30        -0.4422   -8.6742   -5.4394 H         1 <1>         0.0482
     31 H31         2.3201   -8.3666   -3.0412 H         1 <1>         0.1284
     32 H32         2.2945   -6.8160   -1.1307 H         1 <1>         0.1234
@<TRIPOS>BOND
     1    1    2 1
     2    1   21 1
     3    1   22 1
     4    1   23 1
     5    2    6 1
     6    2    3 2
     7    3    4 1
     8    4   19 1
     9    4    5 2
    10    5    6 1
    11    5    7 1
    12    7    8 2
    13    7    9 1
    14    9   10 2
    15    9   24 1
    16   10   11 1
    17   10   19 1
    18   11   12 1
    19   11   25 1
    20   12   18 ar
    21   12   13 ar
    22   13   14 ar
    23   13   26 1
    24   14   15 ar
    25   14   27 1
    26   15   16 1
    27   15   17 ar
    28   16   28 1
    29   16   29 1
    30   16   30 1
    31   17   18 ar
    32   17   31 1
    33   18   32 1
    34   19   20 2
@<TRIPOS>Similarity
1.0110
@<TRIPOS>ShapeSim
0.7432
@<TRIPOS>PharmSim
0.2678
# END
# Name:		C1C(C(OC2=CC(=CC(=C21)O)O)C3=CC(=C(C=C3)O)O)O
# Created and modified by SHAFTS on Thu Mar 11 04:22:19 2021

# 

@<TRIPOS>MOLECULE
C1C(C(OC2=CC(=CC(=C21)O)O)C3=CC(=C(C=C3)O)O)O
   35    37     0
SMALL
USER_CHARGE


@<TRIPOS>ATOM
      1 O1          0.8462   -7.2870   -5.2030 O.3       1 <1>        -0.4294
      2 C2          0.6075   -7.0473   -3.8869 C.ar      1 <1>        -0.0207
      3 C3          1.3452   -7.7073   -2.9160 C.ar      1 <1>        -0.0313
      4 C4          1.1001   -7.4582   -1.5753 C.ar      1 <1>        -0.0262
      5 O5          1.8235   -8.1048   -0.6237 O.3       1 <1>        -0.4315
      6 C6          0.1178   -6.5494   -1.1994 C.ar      1 <1>        -0.0320
      7 C7         -0.1119   -6.2971    0.2693 C.3       1 <1>        -0.0073
      8 C8         -1.4769   -5.6347    0.4714 C.3       1 <1>         0.0157
      9 H9         -1.5555   -5.2590    1.4916 H         1 <1>         0.1122
     10 O10        -2.5148   -6.5862    0.2274 O.3       1 <1>        -0.4794
     11 C11        -1.5986   -4.4700   -0.5194 C.3       1 <1>         0.0730
     12 H12        -0.7542   -3.7921   -0.3947 H         1 <1>         0.1573
     13 C13        -2.8865   -3.7269   -0.2736 C.ar      1 <1>        -0.0479
     14 C14        -4.0766   -4.2286   -0.7655 C.ar      1 <1>        -0.0733
     15 C15        -5.2610   -3.5504   -0.5430 C.ar      1 <1>        -0.0550
     16 C16        -5.2562   -2.3655    0.1745 C.ar      1 <1>        -0.0052
     17 O17        -6.4202   -1.6974    0.3946 O.3       1 <1>        -0.4310
     18 C18        -4.0577   -1.8604    0.6702 C.ar      1 <1>        -0.0037
     19 O19        -4.0480   -0.6978    1.3756 O.3       1 <1>        -0.4317
     20 C20        -2.8755   -2.5475    0.4482 C.ar      1 <1>        -0.0484
     21 O21        -1.5955   -5.0035   -1.8441 O.3       1 <1>        -0.3771
     22 C22        -0.6218   -5.8939   -2.1680 C.ar      1 <1>         0.0198
     23 C23        -0.3696   -6.1390   -3.5133 C.ar      1 <1>        -0.0160
     24 H24         1.5149   -6.7076   -5.5934 H         1 <1>         0.3664
     25 H25         2.1091   -8.4143   -3.2042 H         1 <1>         0.1317
     26 H26         2.6300   -7.6412   -0.3600 H         1 <1>         0.3580
     27 H27        -0.0848   -7.2440    0.8086 H         1 <1>         0.0779
     28 H28         0.6700   -5.6406    0.6511 H         1 <1>         0.0779
     29 H29        -2.4856   -7.3580    0.8092 H         1 <1>         0.3276
     30 H30        -4.0816   -5.1524   -1.3250 H         1 <1>         0.1443
     31 H31        -6.1896   -3.9442   -0.9291 H         1 <1>         0.1347
     32 H32        -6.8753   -1.9573    1.2072 H         1 <1>         0.3567
     33 H33        -4.1638   -0.8150    2.3285 H         1 <1>         0.3564
     34 H34        -1.9442   -2.1578    0.8318 H         1 <1>         0.1391
     35 H35        -0.9410   -5.6224   -4.2703 H         1 <1>         0.1384
@<TRIPOS>BOND
     1    1    2 1
     2    1   24 1
     3    2   23 ar
     4    2    3 ar
     5    3    4 ar
     6    3   25 1
     7    4    5 1
     8    4    6 ar
     9    5   26 1
    10    6   22 ar
    11    6    7 1
    12    7    8 1
    13    7   27 1
    14    7   28 1
    15    8    9 1
    16    8   10 1
    17    8   11 1
    18   10   29 1
    19   11   12 1
    20   11   13 1
    21   11   21 1
    22   13   20 ar
    23   13   14 ar
    24   14   15 ar
    25   14   30 1
    26   15   16 ar
    27   15   31 1
    28   16   17 1
    29   16   18 ar
    30   17   32 1
    31   18   19 1
    32   18   20 ar
    33   19   33 1
    34   20   34 1
    35   21   22 1
    36   22   23 ar
    37   23   35 1
@<TRIPOS>Similarity
1.0100
@<TRIPOS>ShapeSim
0.7807
@<TRIPOS>PharmSim
0.2294
# END
# Name:		C1C(C(OC2=CC(=CC(=C21)O)O)C3=CC(=C(C=C3)O)O)O
# Created and modified by SHAFTS on Thu Mar 11 04:22:19 2021

# 

@<TRIPOS>MOLECULE
C1C(C(OC2=CC(=CC(=C21)O)O)C3=CC(=C(C=C3)O)O)O
   35    37     0
SMALL
USER_CHARGE


@<TRIPOS>ATOM
      1 O1          0.8462   -7.2870   -5.2030 O.3       1 <1>        -0.4294
      2 C2          0.6075   -7.0473   -3.8869 C.ar      1 <1>        -0.0207
      3 C3          1.3452   -7.7073   -2.9160 C.ar      1 <1>        -0.0313
      4 C4          1.1001   -7.4582   -1.5753 C.ar      1 <1>        -0.0262
      5 O5          1.8235   -8.1048   -0.6237 O.3       1 <1>        -0.4315
      6 C6          0.1178   -6.5494   -1.1994 C.ar      1 <1>        -0.0320
      7 C7         -0.1119   -6.2971    0.2693 C.3       1 <1>        -0.0073
      8 C8         -1.4769   -5.6347    0.4714 C.3       1 <1>         0.0157
      9 H9         -1.5555   -5.2590    1.4916 H         1 <1>         0.1122
     10 O10        -2.5148   -6.5862    0.2274 O.3       1 <1>        -0.4794
     11 C11        -1.5986   -4.4700   -0.5194 C.3       1 <1>         0.0730
     12 H12        -0.7542   -3.7921   -0.3947 H         1 <1>         0.1573
     13 C13        -2.8865   -3.7269   -0.2736 C.ar      1 <1>        -0.0479
     14 C14        -4.0766   -4.2286   -0.7655 C.ar      1 <1>        -0.0733
     15 C15        -5.2610   -3.5504   -0.5430 C.ar      1 <1>        -0.0550
     16 C16        -5.2562   -2.3655    0.1745 C.ar      1 <1>        -0.0052
     17 O17        -6.4202   -1.6974    0.3946 O.3       1 <1>        -0.4310
     18 C18        -4.0577   -1.8604    0.6702 C.ar      1 <1>        -0.0037
     19 O19        -4.0480   -0.6978    1.3756 O.3       1 <1>        -0.4317
     20 C20        -2.8755   -2.5475    0.4482 C.ar      1 <1>        -0.0484
     21 O21        -1.5955   -5.0035   -1.8441 O.3       1 <1>        -0.3771
     22 C22        -0.6218   -5.8939   -2.1680 C.ar      1 <1>         0.0198
     23 C23        -0.3696   -6.1390   -3.5133 C.ar      1 <1>        -0.0160
     24 H24         1.5149   -6.7076   -5.5934 H         1 <1>         0.3664
     25 H25         2.1091   -8.4143   -3.2042 H         1 <1>         0.1317
     26 H26         2.6300   -7.6412   -0.3600 H         1 <1>         0.3580
     27 H27        -0.0848   -7.2440    0.8086 H         1 <1>         0.0779
     28 H28         0.6700   -5.6406    0.6511 H         1 <1>         0.0779
     29 H29        -2.4856   -7.3580    0.8092 H         1 <1>         0.3276
     30 H30        -4.0816   -5.1524   -1.3250 H         1 <1>         0.1443
     31 H31        -6.1896   -3.9442   -0.9291 H         1 <1>         0.1347
     32 H32        -6.8753   -1.9573    1.2072 H         1 <1>         0.3567
     33 H33        -4.1638   -0.8150    2.3285 H         1 <1>         0.3564
     34 H34        -1.9442   -2.1578    0.8318 H         1 <1>         0.1391
     35 H35        -0.9410   -5.6224   -4.2703 H         1 <1>         0.1384
@<TRIPOS>BOND
     1    1    2 1
     2    1   24 1
     3    2   23 ar
     4    2    3 ar
     5    3    4 ar
     6    3   25 1
     7    4    5 1
     8    4    6 ar
     9    5   26 1
    10    6   22 ar
    11    6    7 1
    12    7    8 1
    13    7   27 1
    14    7   28 1
    15    8    9 1
    16    8   10 1
    17    8   11 1
    18   10   29 1
    19   11   12 1
    20   11   13 1
    21   11   21 1
    22   13   20 ar
    23   13   14 ar
    24   14   15 ar
    25   14   30 1
    26   15   16 ar
    27   15   31 1
    28   16   17 1
    29   16   18 ar
    30   17   32 1
    31   18   19 1
    32   18   20 ar
    33   19   33 1
    34   20   34 1
    35   21   22 1
    36   22   23 ar
    37   23   35 1
@<TRIPOS>Similarity
1.0100
@<TRIPOS>ShapeSim
0.7807
@<TRIPOS>PharmSim
0.2294
# END
# Name:		C1C(C(OC2=CC(=CC(=C21)O)O)C3=CC(=C(C=C3)O)O)O
# Created and modified by SHAFTS on Thu Mar 11 04:22:19 2021

# 

@<TRIPOS>MOLECULE
C1C(C(OC2=CC(=CC(=C21)O)O)C3=CC(=C(C=C3)O)O)O
   35    37     0
SMALL
USER_CHARGE


@<TRIPOS>ATOM
      1 O1          0.8462   -7.2870   -5.2030 O.3       1 <1>        -0.4294
      2 C2          0.6075   -7.0473   -3.8869 C.ar      1 <1>        -0.0207
      3 C3          1.3452   -7.7073   -2.9160 C.ar      1 <1>        -0.0313
      4 C4          1.1001   -7.4582   -1.5753 C.ar      1 <1>        -0.0262
      5 O5          1.8235   -8.1048   -0.6237 O.3       1 <1>        -0.4315
      6 C6          0.1178   -6.5494   -1.1994 C.ar      1 <1>        -0.0320
      7 C7         -0.1119   -6.2971    0.2693 C.3       1 <1>        -0.0073
      8 C8         -1.4769   -5.6347    0.4714 C.3       1 <1>         0.0157
      9 H9         -1.5555   -5.2590    1.4916 H         1 <1>         0.1122
     10 O10        -2.5148   -6.5862    0.2274 O.3       1 <1>        -0.4794
     11 C11        -1.5986   -4.4700   -0.5194 C.3       1 <1>         0.0730
     12 H12        -0.7542   -3.7921   -0.3947 H         1 <1>         0.1573
     13 C13        -2.8865   -3.7269   -0.2736 C.ar      1 <1>        -0.0479
     14 C14        -4.0766   -4.2286   -0.7655 C.ar      1 <1>        -0.0733
     15 C15        -5.2610   -3.5504   -0.5430 C.ar      1 <1>        -0.0550
     16 C16        -5.2562   -2.3655    0.1745 C.ar      1 <1>        -0.0052
     17 O17        -6.4202   -1.6974    0.3946 O.3       1 <1>        -0.4310
     18 C18        -4.0577   -1.8604    0.6702 C.ar      1 <1>        -0.0037
     19 O19        -4.0480   -0.6978    1.3756 O.3       1 <1>        -0.4317
     20 C20        -2.8755   -2.5475    0.4482 C.ar      1 <1>        -0.0484
     21 O21        -1.5955   -5.0035   -1.8441 O.3       1 <1>        -0.3771
     22 C22        -0.6218   -5.8939   -2.1680 C.ar      1 <1>         0.0198
     23 C23        -0.3696   -6.1390   -3.5133 C.ar      1 <1>        -0.0160
     24 H24         1.5149   -6.7076   -5.5934 H         1 <1>         0.3664
     25 H25         2.1091   -8.4143   -3.2042 H         1 <1>         0.1317
     26 H26         2.6300   -7.6412   -0.3600 H         1 <1>         0.3580
     27 H27        -0.0848   -7.2440    0.8086 H         1 <1>         0.0779
     28 H28         0.6700   -5.6406    0.6511 H         1 <1>         0.0779
     29 H29        -2.4856   -7.3580    0.8092 H         1 <1>         0.3276
     30 H30        -4.0816   -5.1524   -1.3250 H         1 <1>         0.1443
     31 H31        -6.1896   -3.9442   -0.9291 H         1 <1>         0.1347
     32 H32        -6.8753   -1.9573    1.2072 H         1 <1>         0.3567
     33 H33        -4.1638   -0.8150    2.3285 H         1 <1>         0.3564
     34 H34        -1.9442   -2.1578    0.8318 H         1 <1>         0.1391
     35 H35        -0.9410   -5.6224   -4.2703 H         1 <1>         0.1384
@<TRIPOS>BOND
     1    1    2 1
     2    1   24 1
     3    2   23 ar
     4    2    3 ar
     5    3    4 ar
     6    3   25 1
     7    4    5 1
     8    4    6 ar
     9    5   26 1
    10    6   22 ar
    11    6    7 1
    12    7    8 1
    13    7   27 1
    14    7   28 1
    15    8    9 1
    16    8   10 1
    17    8   11 1
    18   10   29 1
    19   11   12 1
    20   11   13 1
    21   11   21 1
    22   13   20 ar
    23   13   14 ar
    24   14   15 ar
    25   14   30 1
    26   15   16 ar
    27   15   31 1
    28   16   17 1
    29   16   18 ar
    30   17   32 1
    31   18   19 1
    32   18   20 ar
    33   19   33 1
    34   20   34 1
    35   21   22 1
    36   22   23 ar
    37   23   35 1
@<TRIPOS>Similarity
1.0100
@<TRIPOS>ShapeSim
0.7807
@<TRIPOS>PharmSim
0.2294
# END
# Name:		CCCNC1=NN2C(=NC=C2C3=CC4=C(C=C3)NN=C4)C=C1
# Created and modified by SHAFTS on Thu Mar 11 04:22:19 2021

# 

@<TRIPOS>MOLECULE
CCCNC1=NN2C(=NC=C2C3=CC4=C(C=C3)NN=C4)C=C1
   38    41     0
SMALL
USER_CHARGE


@<TRIPOS>ATOM
      1 C1         -4.9099   -2.8638   -0.5826 C.3       1 <1>        -0.0654
      2 C2         -4.4586   -3.4875    0.7396 C.3       1 <1>        -0.0535
      3 C3         -3.2613   -4.4062    0.4878 C.3       1 <1>        -0.0386
      4 N4         -2.8293   -5.0034    1.7538 N.pl3     1 <1>        -0.3688
      5 C5         -1.7493   -5.8810    1.7765 C.2       1 <1>         0.0314
      6 N6         -1.1196   -6.1644    0.6606 N.2       1 <1>        -0.2895
      7 N7         -0.0323   -7.0434    0.6610 N.pl3     1 <1>        -0.2643
      8 C8          0.7895   -7.5073   -0.3325 C.2       1 <1>         0.0239
      9 C9          0.7207   -7.1609   -1.7673 C.ar      1 <1>        -0.0290
     10 C10         1.6261   -7.7237   -2.6439 C.ar      1 <1>        -0.0627
     11 C11         1.5594   -7.3923   -4.0124 C.ar      1 <1>        -0.0343
     12 C12         2.2807   -7.7536   -5.1364 C.2       1 <1>        -0.0283
     13 N13         1.7536   -7.1096   -6.1878 N.pl3     1 <1>        -0.3088
     14 N14         0.6788   -6.3158   -5.7718 N.2       1 <1>        -0.3532
     15 C15         0.5225   -6.4528   -4.4674 C.ar      1 <1>        -0.0158
     16 C16        -0.3734   -5.9127   -3.5176 C.ar      1 <1>        -0.0486
     17 C17        -0.2717   -6.2666   -2.2159 C.ar      1 <1>        -0.0590
     18 C18         1.6934   -8.3594    0.2660 C.2       1 <1>        -0.0049
     19 N19         1.4244   -8.4045    1.5668 N.2       1 <1>        -0.3768
     20 C20         0.3870   -7.6189    1.8318 C.2       1 <1>         0.0393
     21 C21        -0.2901   -7.3136    3.0286 C.2       1 <1>        -0.0070
     22 C22        -1.3406   -6.4506    2.9970 C.2       1 <1>        -0.0000
     23 H23        -4.0910   -2.2845   -1.0093 H         1 <1>         0.0348
     24 H24        -5.1973   -3.6530   -1.2773 H         1 <1>         0.0348
     25 H25        -5.7629   -2.2093   -0.4032 H         1 <1>         0.0348
     26 H26        -4.1713   -2.6982    1.4343 H         1 <1>         0.0500
     27 H27        -5.2776   -4.0667    1.1663 H         1 <1>         0.0500
     28 H28        -3.5487   -5.1954   -0.2069 H         1 <1>         0.0949
     29 H29        -2.4424   -3.8269    0.0611 H         1 <1>         0.0949
     30 H30        -3.2960   -4.7873    2.5762 H         1 <1>         0.3125
     31 H31         2.3783   -8.4106   -2.2851 H         1 <1>         0.1462
     32 H32         3.1195   -8.4334   -5.1622 H         1 <1>         0.2198
     33 H33         2.0707   -7.1829   -7.1015 H         1 <1>         0.3969
     34 H34        -1.1412   -5.2212   -3.8313 H         1 <1>         0.1379
     35 H35        -0.9631   -5.8460   -1.5007 H         1 <1>         0.1478
     36 H36         2.4837   -8.8977   -0.2359 H         1 <1>         0.2133
     37 H37         0.0243   -7.7568    3.9620 H         1 <1>         0.1893
     38 H38        -1.8672   -6.2085    3.9083 H         1 <1>         0.1461
@<TRIPOS>BOND
     1    1    2 1
     2    1   23 1
     3    1   24 1
     4    1   25 1
     5    2    3 1
     6    2   26 1
     7    2   27 1
     8    3    4 1
     9    3   28 1
    10    3   29 1
    11    4    5 1
    12    4   30 1
    13    5   22 1
    14    5    6 2
    15    6    7 1
    16    7   20 1
    17    7    8 1
    18    8    9 1
    19    8   18 2
    20    9   17 ar
    21    9   10 ar
    22   10   11 ar
    23   10   31 1
    24   11   15 ar
    25   11   12 2
    26   12   13 1
    27   12   32 1
    28   13   14 1
    29   13   33 1
    30   14   15 2
    31   15   16 ar
    32   16   17 ar
    33   16   34 1
    34   17   35 1
    35   18   19 1
    36   18   36 1
    37   19   20 2
    38   20   21 1
    39   21   22 2
    40   21   37 1
    41   22   38 1
@<TRIPOS>Similarity
1.0093
@<TRIPOS>ShapeSim
0.6853
@<TRIPOS>PharmSim
0.3240
# END
# Name:		O=C(C=C(OC1=CC(OC)=C2)C3=CC=C(OC)C(OC)=C3)C1=C2OC
# Created and modified by SHAFTS on Thu Mar 11 04:22:19 2021

# 

@<TRIPOS>MOLECULE
O=C(C=C(OC1=CC(OC)=C2)C3=CC=C(OC)C(OC)=C3)C1=C2OC
   43    45     0
SMALL
USER_CHARGE


@<TRIPOS>ATOM
      1 C1          2.6880   -7.7987   -5.2273 C.3       1 <1>         0.0309
      2 O2          1.7104   -6.7926   -4.9551 O.3       1 <1>        -0.4041
      3 C3          1.0971   -6.8406   -3.7451 C.ar      1 <1>         0.0073
      4 C4          1.4395   -7.8379   -2.8387 C.ar      1 <1>        -0.0213
      5 C5          0.8209   -7.8961   -1.6032 C.ar      1 <1>         0.0275
      6 O6          1.1537   -8.8687   -0.7172 O.3       1 <1>        -0.3939
      7 C7          2.1541   -9.8037   -1.1257 C.3       1 <1>         0.0358
      8 C8         -0.1511   -6.9437   -1.2731 C.ar      1 <1>         0.0795
      9 C9         -0.8340   -6.9684    0.0314 C.2       1 <1>         0.0893
     10 O10        -0.5750   -7.8196    0.8668 O.2       1 <1>        -0.4677
     11 C11        -1.8020   -5.9662    0.2787 C.2       1 <1>         0.0232
     12 C12        -2.0624   -5.0346   -0.6776 C.2       1 <1>         0.0552
     13 C13        -3.0744   -3.9978   -0.4009 C.ar      1 <1>        -0.0231
     14 C14        -3.7418   -3.9806    0.8263 C.ar      1 <1>        -0.0728
     15 C15        -4.6874   -3.0108    1.0830 C.ar      1 <1>        -0.0484
     16 C16        -4.9791   -2.0506    0.1246 C.ar      1 <1>         0.0398
     17 O17        -5.9121   -1.0974    0.3824 O.3       1 <1>        -0.4038
     18 C18        -6.5520   -1.1445    1.6592 C.3       1 <1>         0.0271
     19 C19        -4.3167   -2.0615   -1.1022 C.ar      1 <1>         0.0432
     20 O20        -4.6048   -1.1187   -2.0390 O.3       1 <1>        -0.4066
     21 C21        -3.8879   -1.1900   -3.2731 C.3       1 <1>         0.0259
     22 C22        -3.3639   -3.0267   -1.3641 C.ar      1 <1>        -0.0316
     23 O23        -1.4330   -5.0225   -1.8634 O.3       1 <1>        -0.3239
     24 C24        -0.4950   -5.9362   -2.1912 C.ar      1 <1>         0.0652
     25 C25         0.1392   -5.8913   -3.4226 C.ar      1 <1>         0.0018
     26 H26         2.2215   -8.7824   -5.1743 H         1 <1>         0.0918
     27 H27         3.0995   -7.6450   -6.2249 H         1 <1>         0.1280
     28 H28         3.4887   -7.7361   -4.4904 H         1 <1>         0.0918
     29 H29         2.1901   -8.5689   -3.1004 H         1 <1>         0.1154
     30 H30         1.8191  -10.3261   -2.0218 H         1 <1>         0.0931
     31 H31         3.0818   -9.2729   -1.3400 H         1 <1>         0.0931
     32 H32         2.3248  -10.5254   -0.3269 H         1 <1>         0.1293
     33 H33        -2.3307   -5.9415    1.2200 H         1 <1>         0.1367
     34 H34        -3.5171   -4.7271    1.5738 H         1 <1>         0.1411
     35 H35        -5.2025   -2.9985    2.0321 H         1 <1>         0.1342
     36 H36        -7.2724   -0.3300    1.7350 H         1 <1>         0.1201
     37 H37        -7.0684   -2.0978    1.7719 H         1 <1>         0.0912
     38 H38        -5.8035   -1.0417    2.4449 H         1 <1>         0.0912
     39 H39        -4.2128   -0.3825   -3.9291 H         1 <1>         0.1200
     40 H40        -2.8198   -1.0932   -3.0790 H         1 <1>         0.0910
     41 H41        -4.0846   -2.1490   -3.7525 H         1 <1>         0.0910
     42 H42        -2.8501   -3.0363   -2.3140 H         1 <1>         0.1443
     43 H43        -0.1156   -5.1189   -4.1330 H         1 <1>         0.1419
@<TRIPOS>BOND
     1    1    2 1
     2    1   26 1
     3    1   27 1
     4    1   28 1
     5    2    3 1
     6    3   25 ar
     7    3    4 ar
     8    4    5 ar
     9    4   29 1
    10    5    6 1
    11    5    8 ar
    12    6    7 1
    13    7   30 1
    14    7   31 1
    15    7   32 1
    16    8   24 ar
    17    8    9 1
    18    9   10 2
    19    9   11 1
    20   11   12 2
    21   11   33 1
    22   12   13 1
    23   12   23 1
    24   13   22 ar
    25   13   14 ar
    26   14   15 ar
    27   14   34 1
    28   15   16 ar
    29   15   35 1
    30   16   17 1
    31   16   19 ar
    32   17   18 1
    33   18   36 1
    34   18   37 1
    35   18   38 1
    36   19   20 1
    37   19   22 ar
    38   20   21 1
    39   21   39 1
    40   21   40 1
    41   21   41 1
    42   22   42 1
    43   23   24 1
    44   24   25 ar
    45   25   43 1
@<TRIPOS>Similarity
1.0092
@<TRIPOS>ShapeSim
0.7189
@<TRIPOS>PharmSim
0.2903
# END
# Name:		COC1=C(C=C2C(=C1)C(=NC=N2)N3C(=NC(=N3)C4=CC=CC=N4)N)OC
# Created and modified by SHAFTS on Thu Mar 11 04:22:19 2021

# 

@<TRIPOS>MOLECULE
COC1=C(C=C2C(=C1)C(=NC=N2)N3C(=NC(=N3)C4=CC=CC=N4)N)OC
   41    44     0
SMALL
USER_CHARGE


@<TRIPOS>ATOM
      1 C1          2.3981   -8.6562   -6.1256 C.3       1 <1>         0.0325
      2 O2          1.4322   -7.6457   -5.8290 O.3       1 <1>        -0.3921
      3 C3          1.2106   -7.3705   -4.5173 C.ar      1 <1>         0.0634
      4 C4          0.2697   -6.3923   -4.1651 C.ar      1 <1>         0.0558
      5 O5         -0.4094   -5.7309   -5.1399 O.3       1 <1>        -0.4013
      6 C6         -1.3545   -4.7457   -4.7179 C.3       1 <1>         0.0285
      7 C7          0.0273   -6.0966   -2.8537 C.ar      1 <1>        -0.0146
      8 C8          0.7276   -6.7796   -1.8511 C.ar      1 <1>         0.0455
      9 C9          1.6795   -7.7692   -2.2056 C.ar      1 <1>         0.0016
     10 C10         1.9036   -8.0550   -3.5581 C.ar      1 <1>         0.0009
     11 N11         2.3369   -8.4095   -1.2277 N.ar      1 <1>        -0.3570
     12 C12         2.1003   -8.1224    0.0302 C.ar      1 <1>         0.0427
     13 N13         1.2211   -7.2072    0.4065 N.ar      1 <1>        -0.3182
     14 C14         0.5182   -6.5162   -0.4789 C.ar      1 <1>         0.0996
     15 N15        -0.4018   -5.5585   -0.0686 N.pl3     1 <1>        -0.1858
     16 N16        -1.7226   -5.4113   -0.5224 N.2       1 <1>        -0.2498
     17 C17        -2.2374   -4.3886    0.1215 C.2       1 <1>         0.1199
     18 C18        -3.6184   -3.8735   -0.0453 C.ar      1 <1>         0.0649
     19 C19        -4.0396   -2.7730    0.6978 C.ar      1 <1>        -0.0284
     20 C20        -5.3313   -2.3035    0.5312 C.ar      1 <1>        -0.0810
     21 C21        -6.1598   -2.9511   -0.3738 C.ar      1 <1>        -0.0693
     22 C22        -5.6760   -4.0384   -1.0785 C.ar      1 <1>        -0.0347
     23 N23        -4.4406   -4.4614   -0.9050 N.ar      1 <1>        -0.3665
     24 N24        -1.3141   -3.8847    0.9546 N.2       1 <1>        -0.2964
     25 C25        -0.2035   -4.5799    0.8580 C.2       1 <1>         0.0874
     26 N26         0.9618   -4.3529    1.5642 N.pl3     1 <1>        -0.3303
     27 H27         2.4780   -8.7765   -7.2060 H         1 <1>         0.1285
     28 H28         3.3666   -8.3635   -5.7200 H         1 <1>         0.0923
     29 H29         2.0864   -9.5996   -5.6772 H         1 <1>         0.0923
     30 H30        -1.8245   -4.2951   -5.5922 H         1 <1>         0.1277
     31 H31        -2.1172   -5.2162   -4.0974 H         1 <1>         0.0987
     32 H32        -0.8429   -3.9743   -4.1425 H         1 <1>         0.0842
     33 H33        -0.6989   -5.3413   -2.5919 H         1 <1>         0.1522
     34 H34         2.6254   -8.8066   -3.8420 H         1 <1>         0.1531
     35 H35         2.6471   -8.6568    0.7929 H         1 <1>         0.3025
     36 H36        -3.3680   -2.2929    1.3941 H         1 <1>         0.1518
     37 H37        -5.6864   -1.4525    1.0936 H         1 <1>         0.1372
     38 H38        -7.1730   -2.6097   -0.5264 H         1 <1>         0.1284
     39 H39        -6.3184   -4.5450   -1.7835 H         1 <1>         0.2010
     40 H40         1.0085   -3.6226    2.2010 H         1 <1>         0.3053
     41 H41         1.7332   -4.9238    1.4233 H         1 <1>         0.2974
@<TRIPOS>BOND
     1    1    2 1
     2    1   27 1
     3    1   28 1
     4    1   29 1
     5    2    3 1
     6    3   10 ar
     7    3    4 ar
     8    4    5 1
     9    4    7 ar
    10    5    6 1
    11    6   30 1
    12    6   31 1
    13    6   32 1
    14    7    8 ar
    15    7   33 1
    16    8   14 ar
    17    8    9 ar
    18    9   10 ar
    19    9   11 ar
    20   10   34 1
    21   11   12 ar
    22   12   13 ar
    23   12   35 1
    24   13   14 ar
    25   14   15 1
    26   15   25 1
    27   15   16 1
    28   16   17 2
    29   17   18 1
    30   17   24 1
    31   18   23 ar
    32   18   19 ar
    33   19   20 ar
    34   19   36 1
    35   20   21 ar
    36   20   37 1
    37   21   22 ar
    38   21   38 1
    39   22   23 ar
    40   22   39 1
    41   24   25 2
    42   25   26 1
    43   26   40 1
    44   26   41 1
@<TRIPOS>Similarity
1.0084
@<TRIPOS>ShapeSim
0.7252
@<TRIPOS>PharmSim
0.2832
# END
# Name:		CC1=CC(N2S(CCC2)(=O)=O)=C(OC(C3=CC=C(O)C(C(F)(F)F)=C3)=C(O)C4=O)C4=C1
# Created and modified by SHAFTS on Thu Mar 11 04:22:19 2021

# 

@<TRIPOS>MOLECULE
CC1=CC(N2S(CCC2)(=O)=O)=C(OC(C3=CC=C(O)C(C(F)(F)F)=C3)=C(O)C4=O)C4=C1
   46    49     0
SMALL
USER_CHARGE


@<TRIPOS>ATOM
      1 C1         -6.4477   -2.0054    0.9031 C.3       1 <1>        -0.0413
      2 C2         -5.2249   -2.7033    0.3657 C.ar      1 <1>        -0.0907
      3 C3         -3.9637   -2.2954    0.7722 C.ar      1 <1>        -0.0391
      4 C4         -2.8295   -2.9252    0.2887 C.ar      1 <1>         0.0713
      5 N5         -1.5624   -2.5053    0.7063 N.am      1 <1>        -0.1432
      6 C6         -0.8567   -2.9420    1.9205 C.3       1 <1>         0.0370
      7 C7          0.6666   -2.8798    1.6990 C.3       1 <1>         0.0540
      8 C8          0.8989   -1.5039    1.0104 C.3       1 <1>         0.2546
      9 S9         -0.5692   -1.4212   -0.0859 S.o2      1 <1>        -0.0508
     10 O10        -0.3011   -2.0106   -1.3508 O.2       1 <1>        -0.1017
     11 O11        -1.2296   -0.1686    0.0314 O.2       1 <1>        -0.1017
     12 C12        -2.9541   -3.9809   -0.6165 C.ar      1 <1>         0.0982
     13 O13        -1.8606   -4.6077   -1.0989 O.3       1 <1>        -0.3091
     14 C14        -1.9413   -5.6267   -1.9703 C.2       1 <1>         0.0807
     15 C15        -0.6962   -6.2558   -2.4473 C.ar      1 <1>        -0.0288
     16 C16        -0.5077   -6.4903   -3.8124 C.ar      1 <1>        -0.0835
     17 C17         0.6573   -7.0783   -4.2536 C.ar      1 <1>        -0.0623
     18 C18         1.6439   -7.4387   -3.3440 C.ar      1 <1>        -0.0532
     19 O19         2.7905   -8.0181   -3.7834 O.3       1 <1>        -0.5604
     20 C20         1.4606   -7.2075   -1.9858 C.ar      1 <1>         0.0519
     21 C21         2.5347   -7.6002   -1.0044 C.3       1 <1>         0.3392
     22 F22         2.1248   -7.2704    0.2920 F         1 <1>        -0.2075
     23 F23         2.7596   -8.9786   -1.0859 F         1 <1>        -0.1965
     24 F24         3.7166   -6.9161   -1.3079 F         1 <1>        -0.1965
     25 C25         0.3020   -6.6144   -1.5363 C.ar      1 <1>        -0.0700
     26 C26        -3.1450   -6.1034   -2.4320 C.2       1 <1>         0.0874
     27 O27        -3.1813   -7.1390   -3.3142 O.3       1 <1>        -0.4258
     28 C28        -4.3474   -5.5060   -1.9798 C.2       1 <1>         0.1074
     29 O29        -5.4357   -5.9008   -2.3661 O.2       1 <1>        -0.4804
     30 C30        -4.2329   -4.3882   -1.0234 C.ar      1 <1>         0.0515
     31 C31        -5.3666   -3.7468   -0.5226 C.ar      1 <1>        -0.0652
     32 H32        -6.7762   -2.5002    1.8171 H         1 <1>         0.0560
     33 H33        -6.2062   -0.9648    1.1199 H         1 <1>         0.0560
     34 H34        -7.2450   -2.0463    0.1610 H         1 <1>         0.0560
     35 H35        -3.8652   -1.4788    1.4720 H         1 <1>         0.1641
     36 H36        -1.1281   -2.2896    2.7504 H         1 <1>         0.0971
     37 H37        -1.1458   -3.9658    2.1577 H         1 <1>         0.1115
     38 H38         1.1925   -2.9223    2.6528 H         1 <1>         0.0819
     39 H39         0.9906   -3.6915    1.0477 H         1 <1>         0.0748
     40 H40         0.8962   -0.6935    1.7394 H         1 <1>         0.1838
     41 H41         1.8214   -1.5051    0.4297 H         1 <1>         0.1910
     42 H42        -1.2744   -6.2111   -4.5200 H         1 <1>         0.1309
     43 H43         0.8038   -7.2598   -5.3081 H         1 <1>         0.0956
     44 H44         0.1605   -6.4352   -0.4807 H         1 <1>         0.1319
     45 H45        -4.0744   -7.3998   -3.5779 H         1 <1>         0.3625
     46 H46        -6.3510   -4.0649   -0.8327 H         1 <1>         0.1512
@<TRIPOS>BOND
     1    1    2 1
     2    1   32 1
     3    1   33 1
     4    1   34 1
     5    2   31 ar
     6    2    3 ar
     7    3    4 ar
     8    3   35 1
     9    4    5 1
    10    4   12 ar
    11    5    9 am
    12    5    6 1
    13    6    7 1
    14    6   36 1
    15    6   37 1
    16    7    8 1
    17    7   38 1
    18    7   39 1
    19    8    9 1
    20    8   40 1
    21    8   41 1
    22    9   10 2
    23    9   11 2
    24   12   30 ar
    25   12   13 1
    26   13   14 1
    27   14   15 1
    28   14   26 2
    29   15   25 ar
    30   15   16 ar
    31   16   17 ar
    32   16   42 1
    33   17   18 ar
    34   17   43 1
    35   18   19 1
    36   18   20 ar
    37   20   21 1
    38   20   25 ar
    39   21   22 1
    40   21   23 1
    41   21   24 1
    42   25   44 1
    43   26   27 1
    44   26   28 1
    45   27   45 1
    46   28   29 2
    47   28   30 1
    48   30   31 ar
    49   31   46 1
@<TRIPOS>Similarity
1.0083
@<TRIPOS>ShapeSim
0.6876
@<TRIPOS>PharmSim
0.3207
# END
# Name:		C1CC1C(=O)N2CCN(CC2)C(=O)C3=C(C=CC(=C3)CC4=NNC(=O)C5=CC=CC=C54)F
# Created and modified by SHAFTS on Thu Mar 11 04:22:19 2021

# 

@<TRIPOS>MOLECULE
C1CC1C(=O)N2CCN(CC2)C(=O)C3=C(C=CC(=C3)CC4=NNC(=O)C5=CC=CC=C54)F
   55    59     0
SMALL
USER_CHARGE


@<TRIPOS>ATOM
      1 O1          3.4831   -7.6186   -0.0489 O.2       1 <1>        -0.4679
      2 C2          2.3465   -8.0388   -0.1471 C.2       1 <1>         0.1265
      3 C3          1.4316   -7.4650   -1.1545 C.ar      1 <1>         0.0833
      4 C4          0.1827   -6.9739   -0.7693 C.ar      1 <1>        -0.0492
      5 C5         -0.6667   -6.4391   -1.7149 C.ar      1 <1>        -0.0710
      6 C6         -2.0145   -5.9084   -1.2993 C.3       1 <1>         0.0345
      7 C7         -1.8928   -4.4481   -0.9477 C.2       1 <1>         0.0183
      8 N8         -0.7413   -3.8519   -1.0378 N.2       1 <1>        -0.3120
      9 N9         -0.5648   -2.5033   -0.7272 N.am      1 <1>        -0.2431
     10 C10        -1.5895   -1.7303   -0.3108 C.2       1 <1>         0.1344
     11 O11        -1.4119   -0.5549   -0.0455 O.2       1 <1>        -0.4710
     12 C12        -2.9225   -2.3328   -0.1839 C.ar      1 <1>         0.0397
     13 C13        -4.0274   -1.5966    0.2400 C.ar      1 <1>        -0.0595
     14 C14        -5.2557   -2.2126    0.3413 C.ar      1 <1>        -0.0851
     15 C15        -5.4028   -3.5570    0.0261 C.ar      1 <1>        -0.0889
     16 C16        -4.3252   -4.3040   -0.3948 C.ar      1 <1>        -0.0753
     17 C17        -3.0720   -3.7002   -0.5109 C.ar      1 <1>        -0.0151
     18 C18        -0.2851   -6.3876   -3.0444 C.ar      1 <1>        -0.0752
     19 C19         0.9492   -6.8718   -3.4360 C.ar      1 <1>        -0.0322
     20 C20         1.8141   -7.4058   -2.4986 C.ar      1 <1>         0.1060
     21 F21         3.0203   -7.8789   -2.8813 F         1 <1>        -0.2472
     22 N22         1.9232   -9.0319    0.6597 N.am      1 <1>        -0.3410
     23 C23         0.5995   -9.6402    0.4657 C.3       1 <1>         0.0040
     24 C24         0.7756  -11.1550    0.3016 C.3       1 <1>         0.0028
     25 N25         1.6295  -11.6492    1.3908 N.am      1 <1>        -0.3506
     26 C26         1.2065  -12.6430    2.1970 C.2       1 <1>         0.0722
     27 O27         0.1123  -13.1376    2.0270 O.2       1 <1>        -0.4920
     28 C28         2.0931  -13.1395    3.3098 C.3       1 <1>         0.0265
     29 C29         1.6545  -12.8475    4.7462 C.3       1 <1>        -0.0488
     30 C30         1.5559  -14.2695    4.1904 C.3       1 <1>        -0.0475
     31 C31         2.9532  -11.0408    1.5848 C.3       1 <1>         0.0030
     32 C32         2.7793   -9.5299    1.7455 C.3       1 <1>         0.0055
     33 H33        -0.1177   -7.0132    0.2673 H         1 <1>         0.1480
     34 H34        -2.7207   -6.0266   -2.1211 H         1 <1>         0.1213
     35 H35        -2.3712   -6.4626   -0.4311 H         1 <1>         0.1213
     36 H36         0.3181   -2.1110   -0.8125 H         1 <1>         0.3837
     37 H37        -3.9215   -0.5508    0.4877 H         1 <1>         0.1474
     38 H38        -6.1131   -1.6438    0.6695 H         1 <1>         0.1338
     39 H39        -6.3737   -4.0223    0.1125 H         1 <1>         0.1362
     40 H40        -4.4496   -5.3489   -0.6377 H         1 <1>         0.1367
     41 H41        -0.9553   -5.9675   -3.7798 H         1 <1>         0.1459
     42 H42         1.2401   -6.8288   -4.4751 H         1 <1>         0.1364
     43 H43        -0.0275   -9.4369    1.3339 H         1 <1>         0.1100
     44 H44         0.1344   -9.2269   -0.4293 H         1 <1>         0.1244
     45 H45        -0.1976  -11.6437    0.3491 H         1 <1>         0.1334
     46 H46         1.2474  -11.3664   -0.6579 H         1 <1>         0.1045
     47 H47         3.1624  -13.1313    3.0983 H         1 <1>         0.1035
     48 H48         2.4352  -12.6469    5.4800 H         1 <1>         0.0689
     49 H49         0.7247  -12.2962    4.8863 H         1 <1>         0.0618
     50 H50         0.5611  -14.6538    3.9647 H         1 <1>         0.0692
     51 H51         2.2718  -15.0045    4.5583 H         1 <1>         0.0692
     52 H52         3.4181  -11.4542    2.4798 H         1 <1>         0.1244
     53 H53         3.5801  -11.2443    0.7166 H         1 <1>         0.1099
     54 H54         3.7530   -9.0425    1.6977 H         1 <1>         0.1338
     55 H55         2.3069   -9.3160    2.7041 H         1 <1>         0.1122
@<TRIPOS>BOND
     1    1    2 2
     2    2    3 1
     3    2   22 am
     4    3   20 ar
     5    3    4 ar
     6    4    5 ar
     7    4   33 1
     8    5    6 1
     9    5   18 ar
    10    6    7 1
    11    6   34 1
    12    6   35 1
    13    7   17 1
    14    7    8 2
    15    8    9 1
    16    9   10 am
    17    9   36 1
    18   10   11 2
    19   10   12 1
    20   12   17 ar
    21   12   13 ar
    22   13   14 ar
    23   13   37 1
    24   14   15 ar
    25   14   38 1
    26   15   16 ar
    27   15   39 1
    28   16   17 ar
    29   16   40 1
    30   18   19 ar
    31   18   41 1
    32   19   20 ar
    33   19   42 1
    34   20   21 1
    35   22   32 1
    36   22   23 1
    37   23   24 1
    38   23   43 1
    39   23   44 1
    40   24   25 1
    41   24   45 1
    42   24   46 1
    43   25   26 am
    44   25   31 1
    45   26   27 2
    46   26   28 1
    47   28   30 1
    48   28   29 1
    49   28   47 1
    50   29   30 1
    51   29   48 1
    52   29   49 1
    53   30   50 1
    54   30   51 1
    55   31   32 1
    56   31   52 1
    57   31   53 1
    58   32   54 1
    59   32   55 1
@<TRIPOS>Similarity
1.0083
@<TRIPOS>ShapeSim
0.6939
@<TRIPOS>PharmSim
0.3144
# END
# Name:		COC1=CC=C(C=C1)C2=C(C(=O)C3=C(C=C(C=C3O2)O)O)O
# Created and modified by SHAFTS on Thu Mar 11 04:22:19 2021

# 

@<TRIPOS>MOLECULE
COC1=CC=C(C=C1)C2=C(C(=O)C3=C(C=C(C=C3O2)O)O)O
   33    35     0
SMALL
USER_CHARGE


@<TRIPOS>ATOM
      1 C1         -7.3238   -1.4403   -0.3030 C.3       1 <1>         0.0235
      2 O2         -6.1261   -1.3042    0.4644 O.3       1 <1>        -0.4202
      3 C3         -5.1106   -2.1595    0.1790 C.ar      1 <1>        -0.0176
      4 C4         -5.2647   -3.1071   -0.8253 C.ar      1 <1>        -0.0679
      5 C5         -4.2373   -3.9767   -1.1182 C.ar      1 <1>        -0.0752
      6 C6         -3.0383   -3.9046   -0.4032 C.ar      1 <1>        -0.0181
      7 C7         -1.9354   -4.8329   -0.7134 C.2       1 <1>         0.0809
      8 C8         -1.3112   -5.4761    0.3128 C.2       1 <1>         0.0825
      9 O9         -1.7044   -5.2608    1.5977 O.3       1 <1>        -0.4212
     10 C10        -0.2481   -6.3726    0.0309 C.2       1 <1>         0.0933
     11 O11         0.3342   -6.9668    0.9241 O.2       1 <1>        -0.4902
     12 C12         0.1247   -6.5585   -1.3805 C.ar      1 <1>         0.0409
     13 C13         1.1619   -7.4245   -1.7501 C.ar      1 <1>        -0.0241
     14 O14         1.8473   -8.1137   -0.8030 O.3       1 <1>        -0.4308
     15 C15         1.4818   -7.5723   -3.0870 C.ar      1 <1>        -0.0342
     16 C16         0.7784   -6.8652   -4.0560 C.ar      1 <1>        -0.0602
     17 O17         1.1010   -7.0175   -5.3659 O.3       1 <1>        -0.5656
     18 C18        -0.2495   -6.0068   -3.6978 C.ar      1 <1>        -0.0255
     19 C19        -0.5852   -5.8451   -2.3625 C.ar      1 <1>         0.0324
     20 O20        -1.5869   -5.0173   -1.9983 O.3       1 <1>        -0.3361
     21 C21        -2.8878   -2.9496    0.6064 C.ar      1 <1>        -0.0617
     22 C22        -3.9184   -2.0804    0.8886 C.ar      1 <1>        -0.0538
     23 H23        -8.0520   -0.6986    0.0254 H         1 <1>         0.1211
     24 H24        -7.0986   -1.2858   -1.3583 H         1 <1>         0.0922
     25 H25        -7.7344   -2.4400   -0.1616 H         1 <1>         0.0922
     26 H26        -6.1916   -3.1622   -1.3770 H         1 <1>         0.1112
     27 H27        -4.3582   -4.7132   -1.8988 H         1 <1>         0.1374
     28 H28        -1.2004   -5.7629    2.2527 H         1 <1>         0.3700
     29 H29         1.4677   -8.9782   -0.5937 H         1 <1>         0.3510
     30 H30         2.2802   -8.2382   -3.3795 H         1 <1>         0.1034
     31 H31        -0.7889   -5.4633   -4.4594 H         1 <1>         0.1034
     32 H32        -1.9632   -2.8904    1.1614 H         1 <1>         0.1522
     33 H33        -3.8030   -1.3421    1.6682 H         1 <1>         0.1248
@<TRIPOS>BOND
     1    1    2 1
     2    1   23 1
     3    1   24 1
     4    1   25 1
     5    2    3 1
     6    3   22 ar
     7    3    4 ar
     8    4    5 ar
     9    4   26 1
    10    5    6 ar
    11    5   27 1
    12    6    7 1
    13    6   21 ar
    14    7   20 1
    15    7    8 2
    16    8    9 1
    17    8   10 1
    18    9   28 1
    19   10   11 2
    20   10   12 1
    21   12   19 ar
    22   12   13 ar
    23   13   14 1
    24   13   15 ar
    25   14   29 1
    26   15   16 ar
    27   15   30 1
    28   16   17 1
    29   16   18 ar
    30   18   19 ar
    31   18   31 1
    32   19   20 1
    33   21   22 ar
    34   21   32 1
    35   22   33 1
@<TRIPOS>Similarity
1.0073
@<TRIPOS>ShapeSim
0.7606
@<TRIPOS>PharmSim
0.2467
# END
# Name:		C1=CC2=C(C=C1O)OC3=C2C(=O)OC4=C3C=CC(=C4)O
# Created and modified by SHAFTS on Thu Mar 11 04:22:19 2021

# 

@<TRIPOS>MOLECULE
C1=CC2=C(C=C1O)OC3=C2C(=O)OC4=C3C=CC(=C4)O
   27    30     0
SMALL
USER_CHARGE


@<TRIPOS>ATOM
      1 O1         -1.3023   -7.1310    0.8790 O.2       1 <1>        -0.4371
      2 C2         -1.7883   -6.1498    0.3464 C.2       1 <1>         0.1972
      3 O3         -2.7251   -5.4422    0.9996 O.3       1 <1>        -0.2771
      4 C4         -3.2999   -4.3452    0.4599 C.ar      1 <1>         0.0428
      5 C5         -4.2641   -3.6402    1.1651 C.ar      1 <1>        -0.0193
      6 C6         -4.8474   -2.5169    0.6019 C.ar      1 <1>        -0.0604
      7 O7         -5.7911   -1.8288    1.2948 O.3       1 <1>        -0.5597
      8 C8         -4.4736   -2.0876   -0.6685 C.ar      1 <1>        -0.0637
      9 C9         -3.5260   -2.7708   -1.3765 C.ar      1 <1>        -0.0855
     10 C10        -2.9280   -3.9057   -0.8230 C.ar      1 <1>        -0.0038
     11 C11        -1.9070   -4.6586   -1.5629 C.2       1 <1>         0.0478
     12 C12        -1.3523   -5.7748   -0.9425 C.2       1 <1>         0.0642
     13 C13        -0.3771   -6.3201   -1.9012 C.ar      1 <1>        -0.0353
     14 C14         0.4923   -7.4071   -1.8878 C.ar      1 <1>        -0.0750
     15 C15         1.2984   -7.6525   -2.9782 C.ar      1 <1>        -0.0608
     16 C16         1.2443   -6.8168   -4.0885 C.ar      1 <1>        -0.0290
     17 O17         2.0432   -7.0658   -5.1596 O.3       1 <1>        -0.4357
     18 C18         0.3829   -5.7340   -4.1112 C.ar      1 <1>        -0.0196
     19 C19        -0.4355   -5.4740   -3.0201 C.ar      1 <1>         0.0402
     20 O20        -1.3463   -4.5072   -2.7722 O.3       1 <1>        -0.3386
     21 H21        -4.5598   -3.9666    2.1512 H         1 <1>         0.1137
     22 H22        -4.9354   -1.2102   -1.0966 H         1 <1>         0.1023
     23 H23        -3.2392   -2.4340   -2.3618 H         1 <1>         0.1320
     24 H24         0.5351   -8.0558   -1.0255 H         1 <1>         0.1446
     25 H25         1.9738   -8.4952   -2.9702 H         1 <1>         0.1324
     26 H26         1.6438   -7.6466   -5.8217 H         1 <1>         0.3567
     27 H27         0.3475   -5.0907   -4.9781 H         1 <1>         0.1466
@<TRIPOS>BOND
     1    1    2 2
     2    2   12 1
     3    2    3 1
     4    3    4 1
     5    4   10 ar
     6    4    5 ar
     7    5    6 ar
     8    5   21 1
     9    6    7 1
    10    6    8 ar
    11    8    9 ar
    12    8   22 1
    13    9   10 ar
    14    9   23 1
    15   10   11 1
    16   11   20 1
    17   11   12 2
    18   12   13 1
    19   13   19 ar
    20   13   14 ar
    21   14   15 ar
    22   14   24 1
    23   15   16 ar
    24   15   25 1
    25   16   17 1
    26   16   18 ar
    27   17   26 1
    28   18   19 ar
    29   18   27 1
    30   19   20 1
@<TRIPOS>Similarity
1.0070
@<TRIPOS>ShapeSim
0.6874
@<TRIPOS>PharmSim
0.3197
# END
# Name:		O=C1NC2=CC=C(S(=O)(O)=O)C=C2/C1=C3NC(C=CC=C4)=C4C/3=O
# Created and modified by SHAFTS on Thu Mar 11 04:22:19 2021

# 

@<TRIPOS>MOLECULE
O=C1NC2=CC=C(S(=O)(O)=O)C=C2/C1=C3NC(C=CC=C4)=C4C/3=O
   32    35     0
SMALL
USER_CHARGE


@<TRIPOS>ATOM
      1 O1         -2.3369   -4.8439   -4.8465 O.2       1 <1>        -0.5300
      2 C2         -1.5161   -5.4517   -4.1865 C.2       1 <1>         0.5600
      3 N3         -0.5511   -6.2542   -4.6674 N.am      1 <1>        -0.6600
      4 C4          0.2170   -6.7944   -3.6418 C.ar      1 <1>         0.1400
      5 C5          1.3028   -7.6612   -3.6599 C.ar      1 <1>        -0.1700
      6 C6          1.8977   -8.0529   -2.4764 C.ar      1 <1>        -0.0300
      7 C7          1.4235   -7.5900   -1.2605 C.ar      1 <1>        -0.6800
      8 S8          2.1970   -8.1012    0.2378 S.o2      1 <1>         2.7100
      9 O9          1.1660   -8.0997    1.2639 O.co2     1 <1>        -0.5000
     10 O10         2.7298   -9.4340    0.0012 O.co2     1 <1>        -0.5000
     11 O11         3.2478   -7.1351    0.5183 O.co2     1 <1>        -0.5000
     12 C12         0.3461   -6.7282   -1.2206 C.ar      1 <1>        -0.0100
     13 C13        -0.2611   -6.3271   -2.4080 C.ar      1 <1>        -0.0800
     14 C14        -1.3980   -5.4342   -2.7110 C.2       1 <1>        -0.2600
     15 C15        -2.1811   -4.7370   -1.8136 C.2       1 <1>         0.1900
     16 N16        -3.3415   -4.0568   -2.1018 N.pl3     1 <1>        -0.6000
     17 C17        -3.8675   -3.4718   -0.9588 C.ar      1 <1>         0.1900
     18 C18        -5.0077   -2.6990   -0.7640 C.ar      1 <1>        -0.1800
     19 C19        -5.3182   -2.2256    0.4950 C.ar      1 <1>        -0.0600
     20 C20        -4.5033   -2.5118    1.5784 C.ar      1 <1>        -0.2300
     21 C21        -3.3681   -3.2759    1.4081 C.ar      1 <1>         0.0000
     22 C22        -3.0434   -3.7604    0.1405 C.ar      1 <1>        -0.3100
     23 C23        -1.9306   -4.5883   -0.3604 C.2       1 <1>         0.3900
     24 O24        -1.0054   -5.0489    0.2808 O.2       1 <1>        -0.4100
     25 H25        -0.4088   -6.4339   -5.6099 H         1 <1>         0.4000
     26 H26         1.6822   -8.0299   -4.6015 H         1 <1>         0.1100
     27 H27         2.7410   -8.7272   -2.4996 H         1 <1>         0.1300
     28 H28        -0.0248   -6.3669   -0.2728 H         1 <1>         0.1700
     29 H29        -5.6515   -2.4686   -1.6000 H         1 <1>         0.1100
     30 H30        -6.2051   -1.6259    0.6369 H         1 <1>         0.1100
     31 H31        -4.7575   -2.1353    2.5583 H         1 <1>         0.1100
     32 H32        -2.7328   -3.4986    2.2526 H         1 <1>         0.1100
@<TRIPOS>BOND
     1    1    2 2
     2    2   14 1
     3    2    3 am
     4    3    4 1
     5    3   25 1
     6    4   13 ar
     7    4    5 ar
     8    5    6 ar
     9    5   26 1
    10    6    7 ar
    11    6   27 1
    12    7    8 1
    13    7   12 ar
    14    8    9 ar
    15    8   10 ar
    16    8   11 ar
    17   12   13 ar
    18   12   28 1
    19   13   14 1
    20   14   15 2
    21   15   23 1
    22   15   16 1
    23   16   17 1
    24   17   22 ar
    25   17   18 ar
    26   18   19 ar
    27   18   29 1
    28   19   20 ar
    29   19   30 1
    30   20   21 ar
    31   20   31 1
    32   21   22 ar
    33   21   32 1
    34   22   23 1
    35   23   24 2
@<TRIPOS>Similarity
1.0065
@<TRIPOS>ShapeSim
0.6885
@<TRIPOS>PharmSim
0.3180
# END
# Name:		O=C(N1)/C(C2=C1C=CC(S(=O)(O)=O)=C2)=C3NC(C=CC=C4)=C4C/3=O
# Created and modified by SHAFTS on Thu Mar 11 04:22:19 2021

# 

@<TRIPOS>MOLECULE
O=C(N1)/C(C2=C1C=CC(S(=O)(O)=O)=C2)=C3NC(C=CC=C4)=C4C/3=O
   32    35     0
SMALL
USER_CHARGE


@<TRIPOS>ATOM
      1 O1         -2.3369   -4.8439   -4.8465 O.2       1 <1>        -0.5300
      2 C2         -1.5161   -5.4517   -4.1865 C.2       1 <1>         0.5600
      3 N3         -0.5511   -6.2542   -4.6674 N.am      1 <1>        -0.6600
      4 C4          0.2170   -6.7944   -3.6418 C.ar      1 <1>         0.1400
      5 C5          1.3028   -7.6612   -3.6599 C.ar      1 <1>        -0.1700
      6 C6          1.8977   -8.0529   -2.4764 C.ar      1 <1>        -0.0300
      7 C7          1.4235   -7.5900   -1.2605 C.ar      1 <1>        -0.6800
      8 S8          2.1970   -8.1012    0.2378 S.o2      1 <1>         2.7100
      9 O9          1.1660   -8.0997    1.2639 O.co2     1 <1>        -0.5000
     10 O10         2.7298   -9.4340    0.0012 O.co2     1 <1>        -0.5000
     11 O11         3.2478   -7.1351    0.5183 O.co2     1 <1>        -0.5000
     12 C12         0.3461   -6.7282   -1.2206 C.ar      1 <1>        -0.0100
     13 C13        -0.2611   -6.3271   -2.4080 C.ar      1 <1>        -0.0800
     14 C14        -1.3980   -5.4342   -2.7110 C.2       1 <1>        -0.2600
     15 C15        -2.1811   -4.7370   -1.8136 C.2       1 <1>         0.1900
     16 N16        -3.3415   -4.0568   -2.1018 N.pl3     1 <1>        -0.6000
     17 C17        -3.8675   -3.4718   -0.9588 C.ar      1 <1>         0.1900
     18 C18        -5.0077   -2.6990   -0.7640 C.ar      1 <1>        -0.1800
     19 C19        -5.3182   -2.2256    0.4950 C.ar      1 <1>        -0.0600
     20 C20        -4.5033   -2.5118    1.5784 C.ar      1 <1>        -0.2300
     21 C21        -3.3681   -3.2759    1.4081 C.ar      1 <1>         0.0000
     22 C22        -3.0434   -3.7604    0.1405 C.ar      1 <1>        -0.3100
     23 C23        -1.9306   -4.5883   -0.3604 C.2       1 <1>         0.3900
     24 O24        -1.0054   -5.0489    0.2808 O.2       1 <1>        -0.4100
     25 H25        -0.4088   -6.4339   -5.6099 H         1 <1>         0.4000
     26 H26         1.6822   -8.0299   -4.6015 H         1 <1>         0.1100
     27 H27         2.7410   -8.7272   -2.4996 H         1 <1>         0.1300
     28 H28        -0.0248   -6.3669   -0.2728 H         1 <1>         0.1700
     29 H29        -5.6515   -2.4686   -1.6000 H         1 <1>         0.1100
     30 H30        -6.2051   -1.6259    0.6369 H         1 <1>         0.1100
     31 H31        -4.7575   -2.1353    2.5583 H         1 <1>         0.1100
     32 H32        -2.7328   -3.4986    2.2526 H         1 <1>         0.1100
@<TRIPOS>BOND
     1    1    2 2
     2    2   14 1
     3    2    3 am
     4    3    4 1
     5    3   25 1
     6    4   13 ar
     7    4    5 ar
     8    5    6 ar
     9    5   26 1
    10    6    7 ar
    11    6   27 1
    12    7    8 1
    13    7   12 ar
    14    8    9 ar
    15    8   10 ar
    16    8   11 ar
    17   12   13 ar
    18   12   28 1
    19   13   14 1
    20   14   15 2
    21   15   23 1
    22   15   16 1
    23   16   17 1
    24   17   22 ar
    25   17   18 ar
    26   18   19 ar
    27   18   29 1
    28   19   20 ar
    29   19   30 1
    30   20   21 ar
    31   20   31 1
    32   21   22 ar
    33   21   32 1
    34   22   23 1
    35   23   24 2
@<TRIPOS>Similarity
1.0065
@<TRIPOS>ShapeSim
0.6885
@<TRIPOS>PharmSim
0.3180
# END
# Name:		O=C(C1=CC=CC=C1N/2)C2=C3C(NC4=C\3C=C(S(=O)(O)=O)C=C4)=O
# Created and modified by SHAFTS on Thu Mar 11 04:22:19 2021

# 

@<TRIPOS>MOLECULE
O=C(C1=CC=CC=C1N/2)C2=C3C(NC4=C\3C=C(S(=O)(O)=O)C=C4)=O
   32    35     0
SMALL
USER_CHARGE


@<TRIPOS>ATOM
      1 O1         -2.3369   -4.8439   -4.8465 O.2       1 <1>        -0.5300
      2 C2         -1.5161   -5.4517   -4.1865 C.2       1 <1>         0.5600
      3 N3         -0.5511   -6.2542   -4.6674 N.am      1 <1>        -0.6600
      4 C4          0.2170   -6.7944   -3.6418 C.ar      1 <1>         0.1400
      5 C5          1.3028   -7.6612   -3.6599 C.ar      1 <1>        -0.1700
      6 C6          1.8977   -8.0529   -2.4764 C.ar      1 <1>        -0.0300
      7 C7          1.4235   -7.5900   -1.2605 C.ar      1 <1>        -0.6800
      8 S8          2.1970   -8.1012    0.2378 S.o2      1 <1>         2.7100
      9 O9          1.1660   -8.0997    1.2639 O.co2     1 <1>        -0.5000
     10 O10         2.7298   -9.4340    0.0012 O.co2     1 <1>        -0.5000
     11 O11         3.2478   -7.1351    0.5183 O.co2     1 <1>        -0.5000
     12 C12         0.3461   -6.7282   -1.2206 C.ar      1 <1>        -0.0100
     13 C13        -0.2611   -6.3271   -2.4080 C.ar      1 <1>        -0.0800
     14 C14        -1.3980   -5.4342   -2.7110 C.2       1 <1>        -0.2600
     15 C15        -2.1811   -4.7370   -1.8136 C.2       1 <1>         0.1900
     16 N16        -3.3415   -4.0568   -2.1018 N.pl3     1 <1>        -0.6000
     17 C17        -3.8675   -3.4718   -0.9588 C.ar      1 <1>         0.1900
     18 C18        -5.0077   -2.6990   -0.7640 C.ar      1 <1>        -0.1800
     19 C19        -5.3182   -2.2256    0.4950 C.ar      1 <1>        -0.0600
     20 C20        -4.5033   -2.5118    1.5784 C.ar      1 <1>        -0.2300
     21 C21        -3.3681   -3.2759    1.4081 C.ar      1 <1>         0.0000
     22 C22        -3.0434   -3.7604    0.1405 C.ar      1 <1>        -0.3100
     23 C23        -1.9306   -4.5883   -0.3604 C.2       1 <1>         0.3900
     24 O24        -1.0054   -5.0489    0.2808 O.2       1 <1>        -0.4100
     25 H25        -0.4088   -6.4339   -5.6099 H         1 <1>         0.4000
     26 H26         1.6822   -8.0299   -4.6015 H         1 <1>         0.1100
     27 H27         2.7410   -8.7272   -2.4996 H         1 <1>         0.1300
     28 H28        -0.0248   -6.3669   -0.2728 H         1 <1>         0.1700
     29 H29        -5.6515   -2.4686   -1.6000 H         1 <1>         0.1100
     30 H30        -6.2051   -1.6259    0.6369 H         1 <1>         0.1100
     31 H31        -4.7575   -2.1353    2.5583 H         1 <1>         0.1100
     32 H32        -2.7328   -3.4986    2.2526 H         1 <1>         0.1100
@<TRIPOS>BOND
     1    1    2 2
     2    2   14 1
     3    2    3 am
     4    3    4 1
     5    3   25 1
     6    4   13 ar
     7    4    5 ar
     8    5    6 ar
     9    5   26 1
    10    6    7 ar
    11    6   27 1
    12    7    8 1
    13    7   12 ar
    14    8    9 ar
    15    8   10 ar
    16    8   11 ar
    17   12   13 ar
    18   12   28 1
    19   13   14 1
    20   14   15 2
    21   15   23 1
    22   15   16 1
    23   16   17 1
    24   17   22 ar
    25   17   18 ar
    26   18   19 ar
    27   18   29 1
    28   19   20 ar
    29   19   30 1
    30   20   21 ar
    31   20   31 1
    32   21   22 ar
    33   21   32 1
    34   22   23 1
    35   23   24 2
@<TRIPOS>Similarity
1.0065
@<TRIPOS>ShapeSim
0.6885
@<TRIPOS>PharmSim
0.3180
# END
# Name:		FC(F)(F)C1=CC=CC2=C1N=C(C(F)(F)F)C=C2C(C3NCCCC3)O
# Created and modified by SHAFTS on Thu Mar 11 04:22:19 2021

# 

@<TRIPOS>MOLECULE
FC(F)(F)C1=CC=CC2=C1N=C(C(F)(F)F)C=C2C(C3NCCCC3)O
   43    45     0
SMALL
USER_CHARGE


@<TRIPOS>ATOM
      1 O1         -2.9199   -7.1576    0.5827 O.3       1 <1>        -0.4648
      2 C2         -2.4257   -6.5715   -0.6233 C.3       1 <1>        -0.0002
      3 H3         -2.9097   -7.0403   -1.4800 H         1 <1>         0.1887
      4 C4         -0.9361   -6.7823   -0.7105 C.ar      1 <1>        -0.0580
      5 C5         -0.2780   -6.7881   -1.9545 C.ar      1 <1>        -0.0326
      6 C6         -0.9818   -6.5985   -3.1549 C.ar      1 <1>        -0.0677
      7 C7         -0.3089   -6.6105   -4.3383 C.ar      1 <1>        -0.0682
      8 C8          1.0700   -6.8086   -4.3748 C.ar      1 <1>        -0.0399
      9 C9          1.7833   -6.9953   -3.2310 C.ar      1 <1>         0.0904
     10 C10         3.2738   -7.2076   -3.2954 C.3       1 <1>         0.3721
     11 F11         3.6929   -7.1718   -4.6297 F         1 <1>        -0.1812
     12 F12         3.9202   -6.1965   -2.5762 F         1 <1>        -0.1757
     13 F13         3.5921   -8.4515   -2.7399 F         1 <1>        -0.1757
     14 C14         1.1242   -6.9896   -1.9891 C.ar      1 <1>         0.0218
     15 N15         1.7986   -7.1693   -0.8493 N.ar      1 <1>        -0.3346
     16 C16         1.1889   -7.1639    0.3114 C.ar      1 <1>         0.1104
     17 C17         1.9979   -7.3710    1.5659 C.3       1 <1>         0.3938
     18 F18         3.3573   -7.4283    1.2399 F         1 <1>        -0.1601
     19 F19         1.7740   -6.3070    2.4462 F         1 <1>        -0.1710
     20 F20         1.6137   -8.5698    2.1761 F         1 <1>        -0.1656
     21 C21        -0.1861   -6.9673    0.4162 C.ar      1 <1>        -0.0317
     22 C22        -2.7295   -5.0719   -0.6233 C.3       1 <1>        -0.0904
     23 H23        -2.4326   -4.6416   -1.5797 H         1 <1>         0.1064
     24 C24        -4.2294   -4.8559   -0.4110 C.3       1 <1>        -0.0665
     25 C25        -4.5286   -3.3541   -0.4121 C.3       1 <1>        -0.0661
     26 C26        -3.6855   -2.6749    0.6709 C.3       1 <1>        -0.0747
     27 C27        -2.2057   -2.9716    0.4186 C.3       1 <1>        -0.1108
     28 N28        -1.9805   -4.4216    0.4586 N.4       1 <1>         0.4280
     29 H29        -2.2909   -4.7847    1.3475 H         1 <1>         0.1451
     30 H30        -0.9962   -4.6113    0.3441 H         1 <1>         0.1451
     31 H31        -2.5318   -6.7878    1.3875 H         1 <1>         0.3294
     32 H32        -2.0506   -6.4445   -3.1394 H         1 <1>         0.1474
     33 H33        -0.8510   -6.4651   -5.2610 H         1 <1>         0.1578
     34 H34         1.5809   -6.8142   -5.3263 H         1 <1>         0.1693
     35 H35        -0.6598   -6.9682    1.3868 H         1 <1>         0.1486
     36 H36        -4.7841   -5.3382   -1.2161 H         1 <1>         0.0839
     37 H37        -4.5273   -5.2858    0.5453 H         1 <1>         0.0697
     38 H38        -4.2785   -2.9333   -1.3860 H         1 <1>         0.0496
     39 H39        -5.5865   -3.1930   -0.2050 H         1 <1>         0.0638
     40 H40        -3.8513   -1.5980    0.6393 H         1 <1>         0.0788
     41 H41        -3.9721   -3.0593    1.6498 H         1 <1>         0.0575
     42 H42        -1.9202   -2.5865   -0.5603 H         1 <1>         0.0854
     43 H43        -1.6025   -2.4893    1.1878 H         1 <1>         0.0925
@<TRIPOS>BOND
     1    1    2 1
     2    1   31 1
     3    2    3 1
     4    2    4 1
     5    2   22 1
     6    4   21 ar
     7    4    5 ar
     8    5   14 ar
     9    5    6 ar
    10    6    7 ar
    11    6   32 1
    12    7    8 ar
    13    7   33 1
    14    8    9 ar
    15    8   34 1
    16    9   10 1
    17    9   14 ar
    18   10   11 1
    19   10   12 1
    20   10   13 1
    21   14   15 ar
    22   15   16 ar
    23   16   17 1
    24   16   21 ar
    25   17   18 1
    26   17   19 1
    27   17   20 1
    28   21   35 1
    29   22   23 1
    30   22   28 1
    31   22   24 1
    32   24   25 1
    33   24   36 1
    34   24   37 1
    35   25   26 1
    36   25   38 1
    37   25   39 1
    38   26   27 1
    39   26   40 1
    40   26   41 1
    41   27   28 1
    42   27   42 1
    43   27   43 1
    44   28   29 1
    45   28   30 1
@<TRIPOS>Similarity
1.0053
@<TRIPOS>ShapeSim
0.7485
@<TRIPOS>PharmSim
0.2569
# END
# Name:		CC1=CC=C(C=C1)C2=NC3=CC(=O)NN3C(=N2)SCC4=CC=C(C=C4)Br
# Created and modified by SHAFTS on Thu Mar 11 04:22:19 2021

# 

@<TRIPOS>MOLECULE
CC1=CC=C(C=C1)C2=NC3=CC(=O)NN3C(=N2)SCC4=CC=C(C=C4)Br
   41    44     0
SMALL
USER_CHARGE


@<TRIPOS>ATOM
      1 C1          1.5479   -9.6769    5.5798 C.3       1 <1>        -0.0387
      2 C2          1.3954   -9.1363    4.1813 C.ar      1 <1>        -0.1105
      3 C3          0.4196   -8.1940    3.9097 C.ar      1 <1>        -0.0909
      4 C4          0.2753   -7.6949    2.6314 C.ar      1 <1>        -0.0602
      5 C5          1.1158   -8.1426    1.6121 C.ar      1 <1>         0.0153
      6 C6          0.9666   -7.6106    0.2380 C.2       1 <1>         0.0663
      7 N7          1.7699   -8.0501   -0.7219 N.2       1 <1>        -0.3128
      8 C8          1.6468   -7.5795   -1.9667 C.2       1 <1>         0.0638
      9 C9          2.3222   -7.8406   -3.1519 C.2       1 <1>         0.0648
     10 C10         1.7545   -7.0455   -4.1487 C.2       1 <1>         0.1246
     11 O11         2.0983   -7.0152   -5.3192 O.2       1 <1>        -0.4735
     12 N12         0.7624   -6.3174   -3.6002 N.am      1 <1>        -0.2479
     13 N13         0.6789   -6.6354   -2.2411 N.pl3     1 <1>        -0.2327
     14 C14        -0.1321   -6.2037   -1.2315 C.2       1 <1>         0.1320
     15 S15        -1.3786   -4.9989   -1.5472 S.3       1 <1>        -0.0258
     16 C16        -2.0910   -4.8424    0.1093 C.3       1 <1>         0.0559
     17 C17        -3.2108   -3.8342    0.0813 C.ar      1 <1>        -0.0822
     18 C18        -2.9437   -2.4983    0.3157 C.ar      1 <1>        -0.0861
     19 C19        -3.9703   -1.5731    0.2897 C.ar      1 <1>        -0.0772
     20 C20        -5.2651   -1.9843    0.0291 C.ar      1 <1>        -0.0383
     21 Br21       -6.6699   -0.7190   -0.0073 Br        1 <1>        -0.1060
     22 C22        -5.5318   -3.3211   -0.2054 C.ar      1 <1>        -0.0772
     23 C23        -4.5038   -4.2448   -0.1844 C.ar      1 <1>        -0.0861
     24 N24         0.0223   -6.7011   -0.0144 N.2       1 <1>        -0.3021
     25 C25         2.0978   -9.0928    1.8924 C.ar      1 <1>        -0.0581
     26 C26         2.2356   -9.5803    3.1758 C.ar      1 <1>        -0.0893
     27 H27         2.2465   -9.0524    6.1366 H         1 <1>         0.0636
     28 H28         0.5789   -9.6720    6.0789 H         1 <1>         0.0564
     29 H29         1.9286  -10.6973    5.5354 H         1 <1>         0.0564
     30 H30        -0.2308   -7.8485    4.6996 H         1 <1>         0.1221
     31 H31        -0.4870   -6.9596    2.4205 H         1 <1>         0.1463
     32 H32         3.1402   -8.5342   -3.2793 H         1 <1>         0.1606
     33 H33         0.2006   -5.6805   -4.0690 H         1 <1>         0.3857
     34 H34        -2.4801   -5.8087    0.4302 H         1 <1>         0.1241
     35 H35        -1.3212   -4.5111    0.8061 H         1 <1>         0.1241
     36 H36        -1.9328   -2.1774    0.5195 H         1 <1>         0.1376
     37 H37        -3.7617   -0.5295    0.4731 H         1 <1>         0.1384
     38 H38        -6.5426   -3.6426   -0.4089 H         1 <1>         0.1384
     39 H39        -4.7120   -5.2886   -0.3674 H         1 <1>         0.1376
     40 H40         2.7515   -9.4433    1.1073 H         1 <1>         0.1488
     41 H41         2.9956  -10.3158    3.3941 H         1 <1>         0.1225
@<TRIPOS>BOND
     1    1    2 1
     2    1   27 1
     3    1   28 1
     4    1   29 1
     5    2   26 ar
     6    2    3 ar
     7    3    4 ar
     8    3   30 1
     9    4    5 ar
    10    4   31 1
    11    5    6 1
    12    5   25 ar
    13    6   24 1
    14    6    7 2
    15    7    8 1
    16    8   13 1
    17    8    9 2
    18    9   10 1
    19    9   32 1
    20   10   11 2
    21   10   12 am
    22   12   13 1
    23   12   33 1
    24   13   14 1
    25   14   15 1
    26   14   24 2
    27   15   16 1
    28   16   17 1
    29   16   34 1
    30   16   35 1
    31   17   23 ar
    32   17   18 ar
    33   18   19 ar
    34   18   36 1
    35   19   20 ar
    36   19   37 1
    37   20   21 1
    38   20   22 ar
    39   22   23 ar
    40   22   38 1
    41   23   39 1
    42   25   26 ar
    43   25   40 1
    44   26   41 1
@<TRIPOS>Similarity
1.0046
@<TRIPOS>ShapeSim
0.7384
@<TRIPOS>PharmSim
0.2662
# END
# Name:		ClC1=C(C=C(C=C1)[N+]([O-])=O)C(NC2=CC=NC=C2)=O
# Created and modified by SHAFTS on Thu Mar 11 04:22:19 2021

# 

@<TRIPOS>MOLECULE
ClC1=C(C=C(C=C1)[N+]([O-])=O)C(NC2=CC=NC=C2)=O
   27    28     0
SMALL
USER_CHARGE


@<TRIPOS>ATOM
      1 O1         -2.2403   -4.5359   -2.4029 O.2       1 <1>        -0.4461
      2 C2         -1.7275   -5.1259   -1.4719 C.2       1 <1>         0.1377
      3 N3         -2.1772   -4.9254   -0.2173 N.am      1 <1>        -0.3003
      4 C4         -3.1635   -3.9699    0.0256 C.ar      1 <1>        -0.0420
      5 C5         -4.1793   -3.7390   -0.9010 C.ar      1 <1>        -0.0322
      6 C6         -5.1363   -2.7854   -0.6229 C.ar      1 <1>        -0.0319
      7 N7         -5.0979   -2.0965    0.5021 N.ar      1 <1>        -0.4029
      8 C8         -4.1531   -2.2856    1.4039 C.ar      1 <1>        -0.0368
      9 C9         -3.1626   -3.2247    1.2040 C.ar      1 <1>        -0.0402
     10 C10        -0.6155   -6.0672   -1.7164 C.ar      1 <1>         0.0782
     11 C11        -0.0280   -6.7508   -0.6504 C.ar      1 <1>        -0.0033
     12 C12         1.0100   -7.6282   -0.8856 C.ar      1 <1>         0.0943
     13 N13         1.6332   -8.3540    0.2440 N.pl3     1 <1>         0.0127
     14 O14         1.2294   -8.1759    1.3792 O.2       1 <1>        -0.2315
     15 O15         2.5498   -9.1291    0.0382 O.2       1 <1>        -0.2260
     16 C16         1.4699   -7.8324   -2.1747 C.ar      1 <1>        -0.0247
     17 C17         0.8934   -7.1591   -3.2365 C.ar      1 <1>        -0.0290
     18 C18        -0.1504   -6.2818   -3.0167 C.ar      1 <1>         0.0555
     19 Cl19       -0.8736   -5.4378   -4.3502 Cl        1 <1>        -0.0706
     20 H20        -1.8148   -5.4459    0.5168 H         1 <1>         0.3240
     21 H21        -4.2162   -4.2989   -1.8238 H         1 <1>         0.1458
     22 H22        -5.9269   -2.5999   -1.3349 H         1 <1>         0.2053
     23 H23        -4.1576   -1.7005    2.3116 H         1 <1>         0.2039
     24 H24        -2.3925   -3.3748    1.9462 H         1 <1>         0.1306
     25 H25        -0.3853   -6.5926    0.3565 H         1 <1>         0.1784
     26 H26         2.2831   -8.5203   -2.3525 H         1 <1>         0.1845
     27 H27         1.2573   -7.3230   -4.2401 H         1 <1>         0.1667
@<TRIPOS>BOND
     1    1    2 2
     2    2    3 am
     3    2   10 1
     4    3    4 1
     5    3   20 1
     6    4    9 ar
     7    4    5 ar
     8    5    6 ar
     9    5   21 1
    10    6    7 ar
    11    6   22 1
    12    7    8 ar
    13    8    9 ar
    14    8   23 1
    15    9   24 1
    16   10   18 ar
    17   10   11 ar
    18   11   12 ar
    19   11   25 1
    20   12   13 1
    21   12   16 ar
    22   13   14 2
    23   13   15 2
    24   16   17 ar
    25   16   26 1
    26   17   18 ar
    27   17   27 1
    28   18   19 1
@<TRIPOS>Similarity
1.0045
@<TRIPOS>ShapeSim
0.7386
@<TRIPOS>PharmSim
0.2659
# END
# Name:		O=C1C(C(OCC)=O)=CNC2=CC=C(Cl)C=C21
# Created and modified by SHAFTS on Thu Mar 11 04:22:19 2021

# 

@<TRIPOS>MOLECULE
O=C1C(C(OCC)=O)=CNC2=CC=C(Cl)C=C21
   27    28     0
SMALL
USER_CHARGE


@<TRIPOS>ATOM
      1 C1         -0.0226    1.5281   -0.0921 C.3       1 <1>        -0.0325
      2 C2         -0.0005   -0.0015   -0.0620 C.3       1 <1>         0.0263
      3 O3         -1.3623   -0.5050   -0.0426 O.3       1 <1>        -0.3526
      4 C4         -1.5196   -1.8432   -0.0150 C.2       1 <1>         0.1920
      5 O5         -0.5452   -2.5696   -0.0075 O.2       1 <1>        -0.4429
      6 C6         -2.8716   -2.4252    0.0060 C.ar      1 <1>         0.1189
      7 C7         -4.0031   -1.5923   -0.0084 C.ar      1 <1>         0.0184
      8 N8         -5.2156   -2.0825    0.0096 N.ar      1 <1>        -0.3739
      9 C9         -5.4467   -3.4022    0.0422 C.ar      1 <1>        -0.0075
     10 C10        -6.7596   -3.9011    0.0604 C.ar      1 <1>        -0.0359
     11 C11        -6.9730   -5.2458    0.0931 C.ar      1 <1>        -0.0497
     12 C12        -5.9065   -6.1422    0.1091 C.ar      1 <1>        -0.0008
     13 Cl13       -6.2205   -7.8491    0.1504 Cl        1 <1>        -0.1324
     14 C14        -4.6186   -5.6940    0.0923 C.ar      1 <1>        -0.0443
     15 C15        -4.3646   -4.3150    0.0584 C.ar      1 <1>         0.0102
     16 C16        -3.0434   -3.8147    0.0346 C.ar      1 <1>         0.0441
     17 O17        -1.9798   -4.6500    0.0438 O.3       1 <1>        -0.3966
     18 H18        -0.5354    1.9016    0.7943 H         1 <1>         0.0514
     19 H19         0.9997    1.9059   -0.1068 H         1 <1>         0.0585
     20 H20        -0.5478    1.8664   -0.9853 H         1 <1>         0.0514
     21 H21         0.5122   -0.3750   -0.9485 H         1 <1>         0.1011
     22 H22         0.5247   -0.3398    0.8312 H         1 <1>         0.1011
     23 H23        -3.8684   -0.5210   -0.0346 H         1 <1>         0.2436
     24 H24        -7.5976   -3.2201    0.0488 H         1 <1>         0.1578
     25 H25        -7.9848   -5.6232    0.1073 H         1 <1>         0.1543
     26 H26        -3.7987   -6.3969    0.1052 H         1 <1>         0.1533
     27 H27        -1.6788   -4.9130   -0.8367 H         1 <1>         0.3869
@<TRIPOS>BOND
     1    1    2 1
     2    1   18 1
     3    1   19 1
     4    1   20 1
     5    2    3 1
     6    2   21 1
     7    2   22 1
     8    3    4 1
     9    4    5 2
    10    4    6 1
    11    6   16 ar
    12    6    7 ar
    13    7    8 ar
    14    7   23 1
    15    8    9 ar
    16    9   15 ar
    17    9   10 ar
    18   10   11 ar
    19   10   24 1
    20   11   12 ar
    21   11   25 1
    22   12   13 1
    23   12   14 ar
    24   14   15 ar
    25   14   26 1
    26   15   16 ar
    27   16   17 1
    28   17   27 1
@<TRIPOS>Similarity
1.0031
@<TRIPOS>ShapeSim
0.5713
@<TRIPOS>PharmSim
0.4319
# END
# Name:		O=C1C(C(OCC)=O)=CNC2=CC([H])=C(Br)C([H])=C21
# Created and modified by SHAFTS on Thu Mar 11 04:22:19 2021

# 

@<TRIPOS>MOLECULE
O=C1C(C(OCC)=O)=CNC2=CC([H])=C(Br)C([H])=C21
   27    28     0
SMALL
USER_CHARGE


@<TRIPOS>ATOM
      1 C1         -0.0226    1.5280   -0.0921 C.3       1 <1>        -0.0325
      2 C2         -0.0005   -0.0016   -0.0620 C.3       1 <1>         0.0263
      3 O3         -1.3623   -0.5050   -0.0426 O.3       1 <1>        -0.3526
      4 C4         -1.5196   -1.8432   -0.0150 C.2       1 <1>         0.1920
      5 O5         -0.5452   -2.5695   -0.0075 O.2       1 <1>        -0.4429
      6 C6         -2.8716   -2.4252    0.0060 C.ar      1 <1>         0.1189
      7 C7         -4.0031   -1.5924   -0.0084 C.ar      1 <1>         0.0184
      8 N8         -5.2156   -2.0827    0.0092 N.ar      1 <1>        -0.3738
      9 C9         -5.4467   -3.4022    0.0418 C.ar      1 <1>        -0.0064
     10 C10        -6.7595   -3.9012    0.0595 C.ar      1 <1>        -0.0366
     11 C11        -6.9728   -5.2460    0.0922 C.ar      1 <1>        -0.0592
     12 C12        -5.9064   -6.1421    0.1091 C.ar      1 <1>        -0.0266
     13 Br13       -6.2485   -8.0014    0.1552 Br        1 <1>        -0.1006
     14 C14        -4.6186   -5.6940    0.0922 C.ar      1 <1>        -0.0498
     15 C15        -4.3646   -4.3150    0.0584 C.ar      1 <1>         0.0126
     16 C16        -3.0434   -3.8147    0.0346 C.ar      1 <1>         0.0450
     17 O17        -1.9798   -4.6500    0.0441 O.3       1 <1>        -0.3965
     18 H18        -0.5354    1.9015    0.7943 H         1 <1>         0.0514
     19 H19         0.9997    1.9059   -0.1068 H         1 <1>         0.0585
     20 H20        -0.5478    1.8663   -0.9853 H         1 <1>         0.0514
     21 H21         0.5122   -0.3750   -0.9485 H         1 <1>         0.1011
     22 H22         0.5247   -0.3399    0.8312 H         1 <1>         0.1011
     23 H23        -3.8683   -0.5212   -0.0343 H         1 <1>         0.2436
     24 H24        -7.5977   -3.2203    0.0475 H         1 <1>         0.1580
     25 H25        -7.9846   -5.6235    0.1056 H         1 <1>         0.1540
     26 H26        -3.7989   -6.3970    0.1049 H         1 <1>         0.1581
     27 H27        -1.6786   -4.9134   -0.8363 H         1 <1>         0.3869
@<TRIPOS>BOND
     1    1    2 1
     2    1   18 1
     3    1   19 1
     4    1   20 1
     5    2    3 1
     6    2   21 1
     7    2   22 1
     8    3    4 1
     9    4    5 2
    10    4    6 1
    11    6   16 ar
    12    6    7 ar
    13    7    8 ar
    14    7   23 1
    15    8    9 ar
    16    9   15 ar
    17    9   10 ar
    18   10   11 ar
    19   10   24 1
    20   11   12 ar
    21   11   25 1
    22   12   13 1
    23   12   14 ar
    24   14   15 ar
    25   14   26 1
    26   15   16 ar
    27   16   17 1
    28   17   27 1
@<TRIPOS>Similarity
1.0022
@<TRIPOS>ShapeSim
0.5703
@<TRIPOS>PharmSim
0.4319
# END
# Name:		O=C(O)C1=C3C(C=CC=C3)=NC(C2=CC=CC(Br)=C2)=C1
# Created and modified by SHAFTS on Thu Mar 11 04:22:19 2021

# 

@<TRIPOS>MOLECULE
O=C(O)C1=C3C(C=CC=C3)=NC(C2=CC=CC(Br)=C2)=C1
   29    31     0
SMALL
USER_CHARGE


@<TRIPOS>ATOM
      1 O1          0.1502   -7.0456    2.6481 O.co2     1 <1>        -0.5000
      2 C2          0.4213   -7.3008    1.4834 C.2       1 <1>         0.5300
      3 O3          1.2447   -8.1666    1.2229 O.co2     1 <1>        -0.5000
      4 C4         -0.2497   -6.5678    0.3915 C.ar      1 <1>        -0.0600
      5 C5          0.1381   -6.7613   -1.0063 C.ar      1 <1>        -0.0800
      6 C6          1.1587   -7.6477   -1.3661 C.ar      1 <1>        -0.0700
      7 C7          1.4880   -7.7979   -2.6807 C.ar      1 <1>        -0.1500
      8 C8          0.8206   -7.0797   -3.6706 C.ar      1 <1>        -0.1000
      9 C9         -0.1769   -6.2092   -3.3557 C.ar      1 <1>        -0.1100
     10 C10        -0.5450   -6.0273   -2.0092 C.ar      1 <1>         0.1200
     11 N11        -1.5187   -5.1819   -1.6703 N.ar      1 <1>        -0.4800
     12 C12        -1.8838   -4.9925   -0.4202 C.ar      1 <1>         0.1900
     13 C13        -2.9773   -4.0333   -0.1317 C.ar      1 <1>        -0.0300
     14 C14        -3.3813   -3.8080    1.1832 C.ar      1 <1>        -0.0800
     15 C15        -4.3997   -2.9142    1.4462 C.ar      1 <1>        -0.1200
     16 C16        -5.0196   -2.2428    0.4083 C.ar      1 <1>        -0.0900
     17 C17        -4.6233   -2.4625   -0.8998 C.ar      1 <1>        -0.1000
     18 Br18       -5.4773   -1.5403   -2.3127 Br        1 <1>        -0.0600
     19 C19        -3.6011   -3.3494   -1.1741 C.ar      1 <1>        -0.0500
     20 C20        -1.2787   -5.6709    0.6488 C.ar      1 <1>        -0.1500
     21 H21         1.6830   -8.2094   -0.6071 H         1 <1>         0.1700
     22 H22         2.2763   -8.4821   -2.9581 H         1 <1>         0.1200
     23 H23         1.0998   -7.2155   -4.7050 H         1 <1>         0.1200
     24 H24        -0.6838   -5.6601   -4.1354 H         1 <1>         0.1300
     25 H25        -2.8985   -4.3321    1.9946 H         1 <1>         0.1400
     26 H26        -4.7133   -2.7391    2.4648 H         1 <1>         0.1400
     27 H27        -5.8163   -1.5446    0.6189 H         1 <1>         0.1300
     28 H28        -3.2923   -3.5204   -2.1947 H         1 <1>         0.1400
     29 H29        -1.6038   -5.4906    1.6628 H         1 <1>         0.1400
@<TRIPOS>BOND
     1    1    2 ar
     2    2    3 ar
     3    2    4 1
     4    4   20 ar
     5    4    5 ar
     6    5   10 ar
     7    5    6 ar
     8    6    7 ar
     9    6   21 1
    10    7    8 ar
    11    7   22 1
    12    8    9 ar
    13    8   23 1
    14    9   10 ar
    15    9   24 1
    16   10   11 ar
    17   11   12 ar
    18   12   13 1
    19   12   20 ar
    20   13   19 ar
    21   13   14 ar
    22   14   15 ar
    23   14   25 1
    24   15   16 ar
    25   15   26 1
    26   16   17 ar
    27   16   27 1
    28   17   18 1
    29   17   19 ar
    30   19   28 1
    31   20   29 1
@<TRIPOS>Similarity
1.0020
@<TRIPOS>ShapeSim
0.7216
@<TRIPOS>PharmSim
0.2804
# END
# Name:		O=C1C(C(OCC)=O)=CNC2=CC([H])=C(I)C([H])=C21
# Created and modified by SHAFTS on Thu Mar 11 04:22:19 2021

# 

@<TRIPOS>MOLECULE
O=C1C(C(OCC)=O)=CNC2=CC([H])=C(I)C([H])=C21
   27    28     0
SMALL
USER_CHARGE


@<TRIPOS>ATOM
      1 C1         -0.0226    1.5281   -0.0921 C.3       1 <1>        -0.0325
      2 C2         -0.0005   -0.0015   -0.0620 C.3       1 <1>         0.0263
      3 O3         -1.3623   -0.5050   -0.0426 O.3       1 <1>        -0.3526
      4 C4         -1.5196   -1.8432   -0.0150 C.2       1 <1>         0.1924
      5 O5         -0.5452   -2.5696   -0.0075 O.2       1 <1>        -0.4429
      6 C6         -2.8716   -2.4252    0.0060 C.ar      1 <1>         0.1203
      7 C7         -4.0030   -1.5924   -0.0083 C.ar      1 <1>         0.0211
      8 N8         -5.2156   -2.0826    0.0102 N.ar      1 <1>        -0.3707
      9 C9         -5.4467   -3.4022    0.0432 C.ar      1 <1>        -0.0048
     10 C10        -6.7594   -3.9012    0.0619 C.ar      1 <1>        -0.0359
     11 C11        -6.9725   -5.2460    0.0951 C.ar      1 <1>        -0.0622
     12 C12        -5.9062   -6.1420    0.1111 C.ar      1 <1>        -0.0299
     13 I13        -6.2851   -8.2018    0.1623 I         1 <1>        -0.0900
     14 C14        -4.6188   -5.6940    0.0933 C.ar      1 <1>        -0.0506
     15 C15        -4.3647   -4.3150    0.0594 C.ar      1 <1>         0.0131
     16 C16        -3.0434   -3.8147    0.0346 C.ar      1 <1>         0.0445
     17 O17        -1.9798   -4.6500    0.0423 O.3       1 <1>        -0.3968
     18 H18        -0.5354    1.9016    0.7943 H         1 <1>         0.0514
     19 H19         0.9997    1.9059   -0.1068 H         1 <1>         0.0585
     20 H20        -0.5478    1.8664   -0.9853 H         1 <1>         0.0514
     21 H21         0.5122   -0.3750   -0.9485 H         1 <1>         0.1011
     22 H22         0.5247   -0.3398    0.8312 H         1 <1>         0.1011
     23 H23        -3.8683   -0.5211   -0.0349 H         1 <1>         0.2464
     24 H24        -7.5977   -3.2204    0.0503 H         1 <1>         0.1584
     25 H25        -7.9842   -5.6237    0.1097 H         1 <1>         0.1460
     26 H26        -3.7990   -6.3970    0.1059 H         1 <1>         0.1598
     27 H27        -1.6797   -4.9127   -0.8387 H         1 <1>         0.3869
@<TRIPOS>BOND
     1    1    2 1
     2    1   18 1
     3    1   19 1
     4    1   20 1
     5    2    3 1
     6    2   21 1
     7    2   22 1
     8    3    4 1
     9    4    5 2
    10    4    6 1
    11    6   16 ar
    12    6    7 ar
    13    7    8 ar
    14    7   23 1
    15    8    9 ar
    16    9   15 ar
    17    9   10 ar
    18   10   11 ar
    19   10   24 1
    20   11   12 ar
    21   11   25 1
    22   12   13 1
    23   12   14 ar
    24   14   15 ar
    25   14   26 1
    26   15   16 ar
    27   16   17 1
    28   17   27 1
@<TRIPOS>Similarity
1.0008
@<TRIPOS>ShapeSim
0.5689
@<TRIPOS>PharmSim
0.4319
# END
